<?xml version="1.0" encoding="UTF-8"?>

<!-- generated on Sat May 25 15:17:12 2019 by Eclipse SUMO netconvert Version 1.2.0
<configuration xmlns:xsi="http://www.w3.org/2001/XMLSchema-instance" xsi:noNamespaceSchemaLocation="http://sumo.dlr.de/xsd/netconvertConfiguration.xsd">

    <input>
        <osm-files value="map.osm.xml"/>
    </input>

    <projection>
        <proj.utm value="true"/>
    </projection>

</configuration>
-->

<net version="1.1" junctionCornerDetail="5" limitTurnSpeed="5.50" xmlns:xsi="http://www.w3.org/2001/XMLSchema-instance" xsi:noNamespaceSchemaLocation="http://sumo.dlr.de/xsd/net_file.xsd">

    <location netOffset="-702838.03,-5337889.53" convBoundary="0.00,0.00,1880.26,1517.43" origBoundary="11.728397,48.161263,11.753085,48.175074" projParameter="+proj=utm +zone=32 +ellps=WGS84 +datum=WGS84 +units=m +no_defs"/>

    <type id="highway.bridleway" priority="1" numLanes="1" speed="2.78" allow="pedestrian" oneway="1" width="2.00"/>
    <type id="highway.bus_guideway" priority="1" numLanes="1" speed="27.78" allow="bus" oneway="1"/>
    <type id="highway.cycleway" priority="1" numLanes="1" speed="8.33" allow="bicycle" oneway="0" width="1.00"/>
    <type id="highway.footway" priority="1" numLanes="1" speed="2.78" allow="pedestrian" oneway="1" width="2.00"/>
    <type id="highway.ford" priority="1" numLanes="1" speed="2.78" allow="army" oneway="0"/>
    <type id="highway.living_street" priority="2" numLanes="1" speed="2.78" disallow="tram rail_urban rail rail_electric ship" oneway="0"/>
    <type id="highway.motorway" priority="14" numLanes="2" speed="39.44" allow="private emergency authority army vip passenger hov taxi bus coach delivery truck trailer motorcycle evehicle custom1 custom2" oneway="1"/>
    <type id="highway.motorway_link" priority="9" numLanes="1" speed="22.22" allow="private emergency authority army vip passenger hov taxi bus coach delivery truck trailer motorcycle evehicle custom1 custom2" oneway="1"/>
    <type id="highway.path" priority="1" numLanes="1" speed="2.78" allow="bicycle pedestrian" oneway="1" width="2.00"/>
    <type id="highway.pedestrian" priority="1" numLanes="1" speed="2.78" allow="pedestrian" oneway="1" width="2.00"/>
    <type id="highway.primary" priority="12" numLanes="2" speed="27.78" disallow="tram rail_urban rail rail_electric ship" oneway="0"/>
    <type id="highway.primary_link" priority="7" numLanes="1" speed="22.22" disallow="tram rail_urban rail rail_electric ship" oneway="0"/>
    <type id="highway.raceway" priority="15" numLanes="2" speed="83.33" allow="vip" oneway="0"/>
    <type id="highway.residential" priority="3" numLanes="1" speed="13.89" disallow="tram rail_urban rail rail_electric ship" oneway="0"/>
    <type id="highway.secondary" priority="11" numLanes="2" speed="27.78" disallow="tram rail_urban rail rail_electric ship" oneway="0"/>
    <type id="highway.secondary_link" priority="6" numLanes="1" speed="22.22" disallow="tram rail_urban rail rail_electric ship" oneway="0"/>
    <type id="highway.service" priority="1" numLanes="1" speed="5.56" allow="delivery bicycle pedestrian" oneway="0"/>
    <type id="highway.stairs" priority="1" numLanes="1" speed="1.39" allow="pedestrian" oneway="1" width="2.00"/>
    <type id="highway.step" priority="1" numLanes="1" speed="1.39" allow="pedestrian" oneway="1" width="2.00"/>
    <type id="highway.steps" priority="1" numLanes="1" speed="1.39" allow="pedestrian" oneway="1" width="2.00"/>
    <type id="highway.tertiary" priority="10" numLanes="1" speed="22.22" disallow="tram rail_urban rail rail_electric ship" oneway="0"/>
    <type id="highway.tertiary_link" priority="5" numLanes="1" speed="22.22" disallow="tram rail_urban rail rail_electric ship" oneway="0"/>
    <type id="highway.track" priority="1" numLanes="1" speed="5.56" disallow="tram rail_urban rail rail_electric ship" oneway="0"/>
    <type id="highway.trunk" priority="13" numLanes="2" speed="27.78" disallow="tram rail_urban rail rail_electric bicycle pedestrian ship" oneway="0"/>
    <type id="highway.trunk_link" priority="8" numLanes="1" speed="22.22" disallow="tram rail_urban rail rail_electric bicycle pedestrian ship" oneway="0"/>
    <type id="highway.unclassified" priority="4" numLanes="1" speed="13.89" disallow="tram rail_urban rail rail_electric ship" oneway="0"/>
    <type id="highway.unsurfaced" priority="1" numLanes="1" speed="8.33" disallow="tram rail_urban rail rail_electric ship" oneway="0"/>
    <type id="railway.light_rail" priority="19" numLanes="1" speed="27.78" allow="rail_urban" oneway="1"/>
    <type id="railway.preserved" priority="16" numLanes="1" speed="27.78" allow="rail" oneway="1"/>
    <type id="railway.rail" priority="20" numLanes="1" speed="83.33" allow="rail rail_electric" oneway="1"/>
    <type id="railway.subway" priority="18" numLanes="1" speed="27.78" allow="rail_urban" oneway="1"/>
    <type id="railway.tram" priority="17" numLanes="1" speed="13.89" allow="tram" oneway="1"/>

    <edge id=":1059911353_0" function="internal">
        <lane id=":1059911353_0_0" index="0" disallow="tram rail_urban rail rail_electric ship" speed="12.98" length="12.52" shape="1223.22,987.35 1227.00,986.95 1229.67,986.07 1231.91,984.63 1234.38,982.51"/>
    </edge>
    <edge id=":1059911353_1" function="internal">
        <lane id=":1059911353_1_0" index="0" disallow="tram rail_urban rail rail_electric ship" speed="13.89" length="12.50" shape="1223.22,987.35 1226.97,987.30 1229.53,987.54 1232.08,988.05 1235.76,988.82"/>
        <lane id=":1059911353_1_1" index="1" disallow="tram rail_urban rail rail_electric ship" speed="13.89" length="12.50" shape="1223.36,990.54 1226.99,990.50 1229.48,990.76 1231.95,991.28 1235.53,992.04"/>
    </edge>
    <edge id=":1231071045_0" function="internal">
        <lane id=":1231071045_0_0" index="0" disallow="tram rail_urban rail rail_electric ship" speed="5.56" length="0.35" shape="577.24,892.74 577.25,892.40"/>
    </edge>
    <edge id=":1231071045_1" function="internal">
        <lane id=":1231071045_1_0" index="0" disallow="tram rail_urban rail rail_electric ship" speed="5.56" length="0.12" shape="580.44,892.57 580.44,892.69"/>
    </edge>
    <edge id=":1231071063_0" function="internal">
        <lane id=":1231071063_0_0" index="0" disallow="tram rail_urban rail rail_electric ship" speed="5.56" length="14.89" shape="589.91,1039.32 588.09,1042.57 586.20,1045.77 584.23,1048.92 582.18,1052.04"/>
    </edge>
    <edge id=":1231071063_1" function="internal">
        <lane id=":1231071063_1_0" index="0" disallow="tram rail_urban rail rail_electric ship" speed="5.56" length="14.57" shape="589.91,1039.32 587.61,1042.35 584.77,1043.96 581.39,1044.14 577.47,1042.91"/>
    </edge>
    <edge id=":1231071063_2" function="internal">
        <lane id=":1231071063_2_0" index="0" disallow="tram rail_urban rail rail_electric ship" speed="3.65" length="4.67" shape="589.91,1039.32 588.64,1039.99 587.74,1039.96 587.23,1039.23 587.10,1037.79"/>
    </edge>
    <edge id=":1231071063_3" function="internal">
        <lane id=":1231071063_3_0" index="0" disallow="tram rail_urban rail rail_electric ship" speed="5.56" length="9.64" shape="578.82,1040.01 581.46,1040.85 583.72,1040.77 585.60,1039.75 587.10,1037.79"/>
    </edge>
    <edge id=":1231071063_4" function="internal">
        <lane id=":1231071063_4_0" index="0" disallow="tram rail_urban rail rail_electric ship" speed="5.56" length="14.82" shape="578.82,1040.01 582.30,1042.28 584.02,1045.04 583.98,1048.29 582.18,1052.04"/>
    </edge>
    <edge id=":1231071063_5" function="internal">
        <lane id=":1231071063_5_0" index="0" disallow="tram rail_urban rail rail_electric ship" speed="3.65" length="4.67" shape="578.82,1040.01 579.57,1041.24 579.59,1042.13 578.89,1042.69 577.47,1042.91"/>
    </edge>
    <edge id=":1231071063_6" function="internal">
        <lane id=":1231071063_6_0" index="0" disallow="tram rail_urban rail rail_electric ship" speed="5.56" length="9.05" shape="579.52,1050.26 580.62,1047.97 580.65,1045.98 579.60,1044.30 577.47,1042.91"/>
    </edge>
    <edge id=":1231071063_7" function="internal">
        <lane id=":1231071063_7_0" index="0" disallow="tram rail_urban rail rail_electric ship" speed="5.56" length="14.59" shape="579.52,1050.26 581.55,1047.18 583.46,1044.12 585.30,1041.01 587.10,1037.79"/>
    </edge>
    <edge id=":1231071063_8" function="internal">
        <lane id=":1231071063_8_0" index="0" disallow="tram rail_urban rail rail_electric ship" speed="3.65" length="4.67" shape="579.52,1050.26 580.86,1049.71 581.74,1049.82 582.19,1050.60 582.18,1052.04"/>
    </edge>
    <edge id=":1231071079_0" function="internal">
        <lane id=":1231071079_0_0" index="0" allow="delivery bicycle pedestrian" speed="5.56" length="0.50" shape="512.70,1001.08 512.63,1001.22 512.58,1001.31 512.53,1001.40 512.45,1001.52"/>
    </edge>
    <edge id=":1231071079_1" function="internal">
        <lane id=":1231071079_1_0" index="0" allow="delivery bicycle pedestrian" speed="5.56" length="0.17" shape="509.74,999.83 509.76,999.79 509.78,999.76 509.80,999.73 509.82,999.68"/>
    </edge>
    <edge id=":1231071089_0" function="internal">
        <lane id=":1231071089_0_0" index="0" disallow="tram rail_urban rail rail_electric ship" speed="19.44" length="4.74" shape="476.21,923.11 473.90,927.24"/>
    </edge>
    <edge id=":1231071089_1" function="internal">
        <lane id=":1231071089_1_0" index="0" disallow="tram rail_urban rail rail_electric ship" speed="3.65" length="2.34" shape="476.21,923.11 474.91,923.74 474.02,923.68"/>
    </edge>
    <edge id=":1231071089_7" function="internal">
        <lane id=":1231071089_7_0" index="0" disallow="tram rail_urban rail rail_electric ship" speed="3.65" length="2.34" shape="474.02,923.68 473.53,922.93 473.44,921.49"/>
    </edge>
    <edge id=":1231071089_2" function="internal">
        <lane id=":1231071089_2_0" index="0" disallow="tram rail_urban rail rail_electric ship" speed="4.85" length="4.57" shape="466.63,920.58 467.96,921.03 469.08,921.07 469.98,920.68 470.68,919.88"/>
    </edge>
    <edge id=":1231071089_3" function="internal">
        <lane id=":1231071089_3_0" index="0" disallow="tram rail_urban rail rail_electric ship" speed="6.72" length="10.59" shape="466.63,920.58 470.35,922.50 472.80,924.25 473.98,925.83 473.90,927.24"/>
    </edge>
    <edge id=":1231071089_4" function="internal">
        <lane id=":1231071089_4_0" index="0" disallow="tram rail_urban rail rail_electric ship" speed="19.44" length="4.90" shape="468.27,924.20 470.68,919.88"/>
        <lane id=":1231071089_4_1" index="1" disallow="tram rail_urban rail rail_electric ship" speed="19.44" length="4.90" shape="471.08,925.72 473.44,921.49"/>
    </edge>
    <edge id=":1231071089_6" function="internal">
        <lane id=":1231071089_6_0" index="0" disallow="tram rail_urban rail rail_electric ship" speed="3.65" length="2.34" shape="471.08,925.72 472.36,925.05 473.25,925.08"/>
    </edge>
    <edge id=":1231071089_8" function="internal">
        <lane id=":1231071089_8_0" index="0" disallow="tram rail_urban rail rail_electric ship" speed="3.65" length="2.34" shape="473.25,925.08 473.77,925.81 473.90,927.24"/>
    </edge>
    <edge id=":1231071091_0" function="internal">
        <lane id=":1231071091_0_0" index="0" disallow="tram rail_urban rail rail_electric ship" speed="3.65" length="4.67" shape="311.76,1241.90 310.73,1240.89 310.49,1240.03 311.03,1239.32 312.35,1238.75"/>
    </edge>
    <edge id=":1231071097_0" function="internal">
        <lane id=":1231071097_0_0" index="0" allow="bicycle pedestrian" speed="4.17" length="4.53" width="2.00" shape="452.39,910.71 452.04,911.76 452.19,912.73 452.82,913.60 453.95,914.37"/>
    </edge>
    <edge id=":1231071097_1" function="internal">
        <lane id=":1231071097_1_0" index="0" disallow="tram rail_urban rail rail_electric ship" speed="5.56" length="5.01" shape="452.39,910.71 450.04,915.13"/>
    </edge>
    <edge id=":1231071097_2" function="internal">
        <lane id=":1231071097_2_0" index="0" disallow="tram rail_urban rail rail_electric ship" speed="3.65" length="4.67" shape="452.39,910.71 451.12,911.38 450.23,911.36 449.71,910.63 449.57,909.19"/>
    </edge>
    <edge id=":1231071097_3" function="internal">
        <lane id=":1231071097_3_0" index="0" disallow="tram rail_urban rail rail_electric ship" speed="5.56" length="5.04" shape="447.21,913.64 449.57,909.19"/>
    </edge>
    <edge id=":1231071097_4" function="internal">
        <lane id=":1231071097_4_0" index="0" allow="bicycle pedestrian" speed="4.17" length="7.37" width="2.00" shape="447.21,913.64 448.06,912.86 449.47,912.72 451.44,913.22 453.95,914.37"/>
    </edge>
    <edge id=":1231071097_5" function="internal">
        <lane id=":1231071097_5_0" index="0" disallow="tram rail_urban rail rail_electric ship" speed="3.65" length="4.67" shape="447.21,913.64 448.47,912.95 449.37,912.97 449.89,913.70 450.04,915.13"/>
    </edge>
    <edge id=":1231071104_0" function="internal">
        <lane id=":1231071104_0_0" index="0" disallow="tram rail_urban rail rail_electric ship" speed="5.56" length="0.37" shape="592.57,831.80 592.51,831.89 592.47,831.96 592.44,832.02 592.40,832.13"/>
    </edge>
    <edge id=":1231071104_1" function="internal">
        <lane id=":1231071104_1_0" index="0" disallow="tram rail_urban rail rail_electric ship" speed="5.56" length="1.12" shape="589.40,831.04 589.51,830.73 589.60,830.52 589.72,830.32 589.90,830.04"/>
    </edge>
    <edge id=":1231071128_0" function="internal">
        <lane id=":1231071128_0_0" index="0" disallow="tram rail_urban rail rail_electric ship" speed="3.65" length="4.67" shape="375.61,1310.30 374.30,1309.70 373.78,1308.98 374.04,1308.12 375.10,1307.14"/>
    </edge>
    <edge id=":1231071131_0" function="internal">
        <lane id=":1231071131_0_0" index="0" allow="delivery bicycle pedestrian" speed="5.56" length="9.52" shape="510.44,1011.49 501.94,1007.20"/>
    </edge>
    <edge id=":1231071131_1" function="internal">
        <lane id=":1231071131_1_0" index="0" allow="delivery bicycle pedestrian" speed="5.56" length="10.67" shape="510.44,1011.49 507.99,1009.81 506.76,1007.79 506.74,1005.42 507.94,1002.71"/>
    </edge>
    <edge id=":1231071131_2" function="internal">
        <lane id=":1231071131_2_0" index="0" allow="delivery bicycle pedestrian" speed="3.65" length="4.67" shape="510.44,1011.49 509.72,1010.24 509.71,1009.35 510.42,1008.81 511.85,1008.62"/>
    </edge>
    <edge id=":1231071131_3" function="internal">
        <lane id=":1231071131_3_0" index="0" allow="delivery bicycle pedestrian" speed="4.94" length="5.12" shape="510.65,1004.40 510.08,1005.70 510.09,1006.84 510.68,1007.81 511.85,1008.62"/>
    </edge>
    <edge id=":1231071131_4" function="internal">
        <lane id=":1231071131_4_0" index="0" allow="delivery bicycle pedestrian" speed="5.56" length="10.26" shape="510.65,1004.40 508.82,1006.65 506.75,1007.86 504.46,1008.05 501.94,1007.20"/>
    </edge>
    <edge id=":1231071131_5" function="internal">
        <lane id=":1231071131_5_0" index="0" allow="delivery bicycle pedestrian" speed="3.65" length="4.67" shape="510.65,1004.40 509.34,1004.99 508.45,1004.91 507.98,1004.15 507.94,1002.71"/>
    </edge>
    <edge id=":1231071131_6" function="internal">
        <lane id=":1231071131_6_0" index="0" allow="delivery bicycle pedestrian" speed="5.34" length="5.40" shape="503.41,1004.36 504.68,1004.77 505.86,1004.63 506.95,1003.94 507.94,1002.71"/>
    </edge>
    <edge id=":1231071131_7" function="internal">
        <lane id=":1231071131_7_0" index="0" allow="delivery bicycle pedestrian" speed="5.56" length="9.46" shape="503.41,1004.36 511.85,1008.62"/>
    </edge>
    <edge id=":1231071131_8" function="internal">
        <lane id=":1231071131_8_0" index="0" allow="delivery bicycle pedestrian" speed="3.65" length="4.67" shape="503.41,1004.36 504.11,1005.62 504.10,1006.52 503.37,1007.04 501.94,1007.20"/>
    </edge>
    <edge id=":1231071174_0" function="internal">
        <lane id=":1231071174_0_0" index="0" disallow="tram rail_urban rail rail_electric ship" speed="3.65" length="4.67" shape="623.33,784.46 624.72,784.09 625.59,784.33 625.92,785.16 625.72,786.59"/>
    </edge>
    <edge id=":125070679_0" function="internal">
        <lane id=":125070679_0_0" index="0" allow="private emergency authority army vip passenger hov taxi bus coach delivery truck trailer motorcycle evehicle custom1 custom2" speed="22.22" length="12.41" shape="591.08,1061.35 593.21,1058.20 594.32,1055.62 595.19,1053.15 596.63,1050.31"/>
    </edge>
    <edge id=":125070679_1" function="internal">
        <lane id=":125070679_1_0" index="0" allow="private emergency authority army vip passenger hov taxi bus coach delivery truck trailer motorcycle evehicle custom1 custom2" speed="22.22" length="13.21" shape="593.56,1063.37 595.91,1059.98 597.23,1057.22 598.33,1054.66 599.99,1051.87"/>
    </edge>
    <edge id=":125070697_0" function="internal">
        <lane id=":125070697_0_0" index="0" allow="private emergency authority army vip passenger hov taxi bus coach delivery truck trailer motorcycle evehicle custom1 custom2" speed="9.67" length="5.64" shape="995.32,596.09 994.49,597.51 994.19,598.61 994.18,599.79 994.24,601.47"/>
    </edge>
    <edge id=":125070697_1" function="internal">
        <lane id=":125070697_1_0" index="0" allow="private emergency authority army vip passenger hov taxi bus coach delivery truck trailer motorcycle evehicle custom1 custom2" speed="25.00" length="6.48" shape="992.67,594.30 991.82,595.99 991.57,597.31 991.31,598.64 990.45,600.32"/>
    </edge>
    <edge id=":125070716_0" function="internal">
        <lane id=":125070716_0_0" index="0" allow="private emergency authority army vip passenger hov taxi bus coach delivery truck trailer motorcycle evehicle custom1 custom2" speed="22.22" length="0.10" shape="985.44,699.07 985.44,699.07"/>
    </edge>
    <edge id=":125070736_0" function="internal">
        <lane id=":125070736_0_0" index="0" disallow="tram rail_urban rail rail_electric bicycle pedestrian ship" speed="22.22" length="4.62" shape="983.46,907.94 979.21,906.14"/>
    </edge>
    <edge id=":125070736_1" function="internal">
        <lane id=":125070736_1_0" index="0" disallow="tram rail_urban rail rail_electric bicycle pedestrian ship" speed="3.65" length="2.34" shape="983.46,907.94 982.65,906.75 982.58,905.86"/>
    </edge>
    <edge id=":125070736_5" function="internal">
        <lane id=":125070736_5_0" index="0" disallow="tram rail_urban rail rail_electric bicycle pedestrian ship" speed="3.65" length="2.34" shape="982.58,905.86 983.25,905.27 984.67,904.98"/>
    </edge>
    <edge id=":125070736_2" function="internal">
        <lane id=":125070736_2_0" index="0" disallow="tram rail_urban rail rail_electric bicycle pedestrian ship" speed="22.22" length="4.31" shape="982.20,899.80 983.34,900.36 984.04,900.90 984.74,901.44 985.87,902.01"/>
    </edge>
    <edge id=":125070736_3" function="internal">
        <lane id=":125070736_3_0" index="0" disallow="tram rail_urban rail rail_electric bicycle pedestrian ship" speed="22.22" length="4.58" shape="980.45,903.19 984.67,904.98"/>
    </edge>
    <edge id=":125070736_4" function="internal">
        <lane id=":125070736_4_0" index="0" disallow="tram rail_urban rail rail_electric bicycle pedestrian ship" speed="3.65" length="2.34" shape="980.45,903.19 981.25,904.39 981.31,905.28"/>
    </edge>
    <edge id=":125070736_6" function="internal">
        <lane id=":125070736_6_0" index="0" disallow="tram rail_urban rail rail_electric bicycle pedestrian ship" speed="3.65" length="2.34" shape="981.31,905.28 980.63,905.86 979.21,906.14"/>
    </edge>
    <edge id=":125075834_0" function="internal">
        <lane id=":125075834_0_0" index="0" allow="private emergency authority army vip passenger hov taxi bus coach delivery truck trailer motorcycle evehicle custom1 custom2" speed="22.22" length="16.09" shape="682.80,930.54 685.49,928.28 688.12,926.07 690.91,923.25 694.08,919.16"/>
    </edge>
    <edge id=":125075834_1" function="internal">
        <lane id=":125075834_1_0" index="0" allow="private emergency authority army vip passenger hov taxi bus coach delivery truck trailer motorcycle evehicle custom1 custom2" speed="22.22" length="16.44" shape="685.80,933.25 688.08,930.57 690.60,928.13 693.44,925.18 696.71,920.99"/>
    </edge>
    <edge id=":1339476735_0" function="internal">
        <lane id=":1339476735_0_0" index="0" allow="delivery bicycle pedestrian" speed="3.65" length="4.67" shape="451.04,355.11 451.91,353.97 452.74,353.62 453.51,354.07 454.23,355.32"/>
    </edge>
    <edge id=":1339476740_0" function="internal">
        <lane id=":1339476740_0_0" index="0" allow="delivery bicycle pedestrian" speed="4.01" length="1.71" shape="561.75,375.76 561.69,375.31 561.53,374.94 561.27,374.62 560.90,374.36"/>
    </edge>
    <edge id=":1339476740_1" function="internal">
        <lane id=":1339476740_1_0" index="0" allow="delivery bicycle pedestrian" speed="5.56" length="5.14" shape="562.41,371.54 563.51,372.31 564.30,373.26 564.78,374.39 564.95,375.72"/>
    </edge>
    <edge id=":1339490518_0" function="internal">
        <lane id=":1339490518_0_0" index="0" allow="delivery bicycle pedestrian" speed="5.56" length="12.34" shape="543.27,397.49 531.18,399.97"/>
    </edge>
    <edge id=":1339490518_1" function="internal">
        <lane id=":1339490518_1_0" index="0" allow="delivery bicycle pedestrian" speed="5.56" length="13.28" shape="543.27,397.49 539.92,397.55 537.02,396.52 534.23,394.80 531.25,392.82"/>
    </edge>
    <edge id=":1339490518_2" function="internal">
        <lane id=":1339490518_2_0" index="0" allow="delivery bicycle pedestrian" speed="3.65" length="4.67" shape="543.27,397.49 541.93,396.95 541.38,396.25 541.61,395.38 542.62,394.36"/>
    </edge>
    <edge id=":1339490518_3" function="internal">
        <lane id=":1339490518_3_0" index="0" allow="delivery bicycle pedestrian" speed="5.56" length="11.06" shape="532.93,390.10 535.55,392.01 537.53,393.59 539.64,394.48 542.62,394.36"/>
    </edge>
    <edge id=":1339490518_4" function="internal">
        <lane id=":1339490518_4_0" index="0" allow="delivery bicycle pedestrian" speed="5.56" length="16.66" shape="532.93,390.10 537.16,393.39 538.28,396.14 536.29,398.33 531.18,399.97"/>
    </edge>
    <edge id=":1339490518_5" function="internal">
        <lane id=":1339490518_5_0" index="0" allow="delivery bicycle pedestrian" speed="3.65" length="4.67" shape="532.93,390.10 533.53,391.41 533.45,392.30 532.69,392.77 531.25,392.82"/>
    </edge>
    <edge id=":1339490518_6" function="internal">
        <lane id=":1339490518_6_0" index="0" allow="delivery bicycle pedestrian" speed="4.68" length="6.78" shape="530.54,396.84 532.61,396.17 533.43,395.28 532.97,394.16 531.25,392.82"/>
    </edge>
    <edge id=":1339490518_7" function="internal">
        <lane id=":1339490518_7_0" index="0" allow="delivery bicycle pedestrian" speed="5.56" length="12.34" shape="530.54,396.84 542.62,394.36"/>
    </edge>
    <edge id=":1339490518_8" function="internal">
        <lane id=":1339490518_8_0" index="0" allow="delivery bicycle pedestrian" speed="3.65" length="4.67" shape="530.54,396.84 531.87,397.38 532.43,398.08 532.20,398.95 531.18,399.97"/>
    </edge>
    <edge id=":1440389795_0" function="internal">
        <lane id=":1440389795_0_0" index="0" disallow="tram rail_urban rail rail_electric ship" speed="13.89" length="5.09" shape="1071.49,1280.39 1068.73,1284.68"/>
    </edge>
    <edge id=":1440389795_1" function="internal">
        <lane id=":1440389795_1_0" index="0" disallow="tram rail_urban rail rail_electric ship" speed="3.65" length="2.34" shape="1071.49,1280.39 1070.17,1280.97 1069.28,1280.87"/>
    </edge>
    <edge id=":1440389795_4" function="internal">
        <lane id=":1440389795_4_0" index="0" disallow="tram rail_urban rail rail_electric ship" speed="3.65" length="2.34" shape="1069.28,1280.87 1068.82,1280.10 1068.80,1278.65"/>
    </edge>
    <edge id=":1440389795_2" function="internal">
        <lane id=":1440389795_2_0" index="0" disallow="tram rail_urban rail rail_electric ship" speed="13.89" length="5.13" shape="1066.03,1282.96 1068.80,1278.65"/>
    </edge>
    <edge id=":1440389795_3" function="internal">
        <lane id=":1440389795_3_0" index="0" disallow="tram rail_urban rail rail_electric ship" speed="3.65" length="2.34" shape="1066.03,1282.96 1067.35,1282.38 1068.24,1282.47"/>
    </edge>
    <edge id=":1440389795_5" function="internal">
        <lane id=":1440389795_5_0" index="0" disallow="tram rail_urban rail rail_electric ship" speed="3.65" length="2.34" shape="1068.24,1282.47 1068.70,1283.24 1068.73,1284.68"/>
    </edge>
    <edge id=":1440390763_0" function="internal">
        <lane id=":1440390763_0_0" index="0" disallow="tram rail_urban rail rail_electric ship" speed="7.76" length="10.53" shape="1090.79,1262.91 1087.72,1262.27 1085.11,1262.45 1082.98,1263.43 1081.33,1265.21"/>
    </edge>
    <edge id=":1440390763_1" function="internal">
        <lane id=":1440390763_1_0" index="0" disallow="tram rail_urban rail rail_electric ship" speed="7.62" length="15.28" shape="1090.79,1262.91 1086.86,1261.03 1084.83,1258.45 1084.70,1255.17 1086.48,1251.19"/>
    </edge>
    <edge id=":1440390763_2" function="internal">
        <lane id=":1440390763_2_0" index="0" disallow="tram rail_urban rail rail_electric ship" speed="3.65" length="4.67" shape="1090.79,1262.91 1089.88,1261.79 1089.74,1260.90 1090.36,1260.26 1091.75,1259.85"/>
    </edge>
    <edge id=":1440390763_3" function="internal">
        <lane id=":1440390763_3_0" index="0" disallow="tram rail_urban rail rail_electric ship" speed="6.02" length="9.08" shape="1089.18,1252.89 1088.13,1255.26 1088.21,1257.21 1089.41,1258.74 1091.75,1259.85"/>
    </edge>
    <edge id=":1440390763_4" function="internal">
        <lane id=":1440390763_4_0" index="0" disallow="tram rail_urban rail rail_electric ship" speed="13.89" length="14.61" shape="1089.18,1252.89 1081.33,1265.21"/>
    </edge>
    <edge id=":1440390763_5" function="internal">
        <lane id=":1440390763_5_0" index="0" disallow="tram rail_urban rail rail_electric ship" speed="3.65" length="2.34" shape="1089.18,1252.89 1087.87,1253.48 1086.98,1253.40"/>
    </edge>
    <edge id=":1440390763_9" function="internal">
        <lane id=":1440390763_9_0" index="0" disallow="tram rail_urban rail rail_electric ship" speed="3.65" length="2.34" shape="1086.98,1253.40 1086.51,1252.63 1086.48,1251.19"/>
    </edge>
    <edge id=":1440390763_6" function="internal">
        <lane id=":1440390763_6_0" index="0" disallow="tram rail_urban rail rail_electric ship" speed="13.89" length="14.57" shape="1078.64,1263.47 1086.48,1251.19"/>
    </edge>
    <edge id=":1440390763_7" function="internal">
        <lane id=":1440390763_7_0" index="0" disallow="tram rail_urban rail rail_electric ship" speed="9.08" length="5.51" shape="1078.64,1263.47 1081.02,1260.84 1082.78,1259.97"/>
    </edge>
    <edge id=":1440390763_8" function="internal">
        <lane id=":1440390763_8_0" index="0" disallow="tram rail_urban rail rail_electric ship" speed="3.65" length="2.34" shape="1078.64,1263.47 1079.97,1262.90 1080.86,1263.00"/>
    </edge>
    <edge id=":1440390763_10" function="internal">
        <lane id=":1440390763_10_0" index="0" disallow="tram rail_urban rail rail_electric ship" speed="9.08" length="9.21" shape="1082.78,1259.97 1084.00,1259.36 1087.57,1259.03 1091.75,1259.85"/>
    </edge>
    <edge id=":1440390763_11" function="internal">
        <lane id=":1440390763_11_0" index="0" disallow="tram rail_urban rail rail_electric ship" speed="3.65" length="2.34" shape="1080.86,1263.00 1081.31,1263.77 1081.33,1265.21"/>
    </edge>
    <edge id=":1440390765_0" function="internal">
        <lane id=":1440390765_0_0" index="0" disallow="tram rail_urban rail rail_electric ship" speed="3.65" length="4.67" shape="1136.25,1273.78 1137.15,1274.90 1137.30,1275.78 1136.68,1276.43 1135.29,1276.83"/>
    </edge>
    <edge id=":1462134371_0" function="internal">
        <lane id=":1462134371_0_0" index="0" disallow="tram rail_urban rail rail_electric ship" speed="3.65" length="4.67" shape="1164.73,371.69 1164.10,370.39 1164.16,369.50 1164.91,369.02 1166.35,368.93"/>
    </edge>
    <edge id=":1485739634_0" function="internal">
        <lane id=":1485739634_0_0" index="0" disallow="tram rail_urban rail rail_electric ship" speed="3.65" length="4.67" shape="1006.32,608.11 1005.58,606.87 1005.56,605.98 1006.26,605.42 1007.69,605.21"/>
    </edge>
    <edge id=":1485761772_0" function="internal">
        <lane id=":1485761772_0_0" index="0" disallow="tram rail_urban rail rail_electric ship" speed="3.65" length="4.67" shape="1755.52,962.99 1756.25,964.24 1756.26,965.13 1755.55,965.67 1754.12,965.87"/>
    </edge>
    <edge id=":1566744_0" function="internal">
        <lane id=":1566744_0_0" index="0" disallow="tram rail_urban rail rail_electric ship" speed="13.89" length="4.85" shape="1314.78,1154.19 1313.41,1153.77 1312.47,1153.47 1311.55,1153.12 1310.21,1152.58"/>
    </edge>
    <edge id=":1566744_1" function="internal">
        <lane id=":1566744_1_0" index="0" disallow="tram rail_urban rail rail_electric ship" speed="3.65" length="2.34" shape="1314.78,1154.19 1313.87,1153.08 1313.72,1152.20"/>
    </edge>
    <edge id=":1566744_4" function="internal">
        <lane id=":1566744_4_0" index="0" disallow="tram rail_urban rail rail_electric ship" speed="3.65" length="2.34" shape="1313.72,1152.20 1314.33,1151.55 1315.71,1151.13"/>
    </edge>
    <edge id=":1566744_2" function="internal">
        <lane id=":1566744_2_0" index="0" disallow="tram rail_urban rail rail_electric ship" speed="13.89" length="4.54" shape="1311.43,1149.62 1312.68,1150.13 1313.54,1150.45 1314.42,1150.74 1315.71,1151.13"/>
    </edge>
    <edge id=":1566744_3" function="internal">