<?xml version="1.0" encoding="UTF-8"?>

<!-- generated on Sat May 25 15:18:22 2019 by Eclipse SUMO duarouter Version 1.2.0
<configuration xmlns:xsi="http://www.w3.org/2001/XMLSchema-instance" xsi:noNamespaceSchemaLocation="http://sumo.dlr.de/xsd/duarouterConfiguration.xsd">

    <input>
        <net-file value="net.net.xml"/>
        <route-files value="small.trips.xml"/>
    </input>

    <output>
        <output-file value="small.rou.xml"/>
        <alternatives-output value="small.rou.alt.xml"/>
    </output>

    <time>
        <begin value="0"/>
        <end value="3600"/>
    </time>

    <report>
        <no-warnings value="true"/>
        <ignore-errors value="true"/>
        <no-step-log value="true"/>
    </report>

</configuration>
-->

<routes xmlns:xsi="http://www.w3.org/2001/XMLSchema-instance" xsi:noNamespaceSchemaLocation="http://sumo.dlr.de/xsd/routes_file.xsd">
    <vehicle id="0" depart="0.00">
        <route edges="-38331806#0 421614348 4901993#0 4901993#1 10264302#0 10264302#1 421614353 421614349 38331793#0 38331793#1 46737898 46737899 38059694 326418284 326418285 187388862 217999470 45559083 290573638 217999472 30032441 326418283 38059361 326418282 217999473 38059362 30032439 145173768 52937669 264221489 419858870 15777957 15777958#0 15777958#1 132908614#0 -22338210#8 -22338210#7 -22338210#6 -22338210#5 22338211#0 22338211#1 22338211#2"/>
    </vehicle>
    <vehicle id="1" depart="1.00">
        <route edges="-157150670#0 157150674#4 157150674#5 157150674#6 15777956 5107172#0 5107172#1 264221488 -145173768 -30032439 -38059362 -217999473 -326418282 -38059361 -326418283 -30032441 -217999472 -290573638 -45559083 -217999470 -187388862 -326418285 -326418284 -38059694 -199222147 -326418280 -25921099 -326418286 -326418281 -96400328 -52381449 -412954624 -5107127 5107127 412954624 52381449 96400328 326418281 326418286 22109176 -46737898 38331791#0 38331791#1 43874929 43793487 10264302#0 10264302#1 421614353 421614349 38331793#0"/>
    </vehicle>
    <vehicle id="2" depart="2.00">
        <route edges="290573638 217999472 30032441 326418283 38059361 326418282 -326418282 -38059361 -326418283 -30032441 -217999472 -290573638 -45559083 -217999470 -187388862 -326418285 -326418284 -38059694 -199222147 -326418280 -25921099 -326418286 -326418281 -96400328 -52381449 -412954624 -5107127 5107127 412954624 52381449 96400328 326418281 326418286 22109176"/>
    </vehicle>
    <vehicle id="3" depart="3.00">
        <route edges="-22338211#0 22338210#5 22338210#6 22338210#7 22338210#8 -132908614#0 -15777958#1 -15777958#0 159190385 5107173 264221491 326418291 5107172#0 5107172#1 264221488 -145173768 -30032439 -38059362 -217999473 -326418282 -38059361 -326418283 -30032441 -217999472 -290573638 -45559083 -217999470 -187388862 -326418285 -326418284 -38059694 -199222147 -326418280 -25921099 -326418286 -326418281 -96400328 -52381449 -412954624 -5107127 5107127 412954624 52381449 96400328 326418281 326418286 22109176 -46737898 38331791#0 38331791#1 43874929 38331805#0 38331805#1 38331806#0 38331806#1 412954610 412954611 -412954648#1 -412954648#0 412954648#0 412954648#1"/>
    </vehicle>
    <vehicle id="4" depart="4.00">
        <route edges="421614349 38331793#0 38331793#1 46737898 46737899 38059694 326418284 326418285 187388862 217999470 45559083 290573638 217999472 30032441 326418283 38059361 326418282 217999473 38059362 30032439 145173768 52937669 264221489 419858870 15777957 15777958#0 15777958#1 132908614#0 -22338210#8 -22338210#7 -22338210#6 22338210#6"/>
    </vehicle>
    <vehicle id="5" depart="5.00">
        <route edges="52381449 96400328 326418281 326418286 25921099 326418280 199222147 38059694 326418284 326418285 187388862 217999470 45559083 290573638 217999472 30032441 326418283 38059361 326418282 217999473 38059362 30032439 145173768 52937669 264221489 419858870 15777957 15777958#0 15777958#1 132908614#0 -22338210#8 -22338210#7 -22338210#6 -22338210#5 -22338210#4 -22338210#3"/>
    </vehicle>
    <vehicle id="6" depart="6.00">
        <route edges="5107127 412954624 52381449 96400328 326418281 326418286 22109176 -46737898 38331791#0 38331791#1 43874929 43793487 10264302#0 10264302#1 38331796#0 38331796#1 38331796#2 38331797#0 38331797#1 38331797#2"/>
    </vehicle>
    <vehicle id="7" depart="7.00">
        <route edges="412954636#0 412954636#1 412954646 -412954610 -38331806#1 -38331806#0 421614348 4901993#0 4901993#1 10264302#0 10264302#1 421614353 421614349 38331793#0 38331793#1 46737898 46737899 38059694 326418284 326418285 187388862 217999470 45559083 290573638 217999472 30032441 326418283 38059361 326418282 -326418282 -38059361 -326418283 -30032441 -217999472 13590165 -326418303 326418273 326418288 326418287 144117526 46737902"/>
    </vehicle>
    <vehicle id="8" depart="8.00">
        <route edges="-326418286 -326418281 -96400328 -52381449 -412954624 -5107127 5107127 412954624 52381449 96400328 326418281 326418286 25921099 326418280 199222147 38059694 326418284 326418285 187388862 217999470 45559083 290573638 217999472 30032441 326418283 38059361 326418282 19798099 253354846 -253354846 46737894"/>
    </vehicle>
    <vehicle id="9" depart="9.00">
        <route edges="-217999472 -290573638 -45559083 -217999470 -187388862 -326418285 -326418284 -38059694 -199222147 -326418280 -25921099 -326418286 -326418281 -96400328 -52381449 -412954624 -5107127 5107127 412954624 52381449 96400328 326418281 326418286 22109176 -46737898 38331791#0 38331791#1 43874929 43793487 10264302#0 10264302#1 38331796#0 38331796#1 38331796#2 38331797#0 38331797#1 38331797#2 38331797#3 49201833 -144959664 -49201828 -81536351 -421614357 -412618719#1 412618719#1 421614357 81536351 49201828"/>
    </vehicle>
    <vehicle id="10" depart="10.00">
        <route edges="326418284 326418285 187388862 -187388862 -326418285 -326418284 -38059694 -199222147 -326418280 -25921099 -326418286 -326418281 -96400328 -52381449 -412954624 -5107127 5107127 412954624 52381449 96400328 326418281 326418286 22109176 -46737898 38331791#0 38331791#1 43874929 43793487 10264302#0 10264302#1 421614353 421614349"/>
    </vehicle>
    <vehicle id="11" depart="11.00">
        <route edges="-132908614#0 -15777958#1 -15777958#0 159190385 5107173 264221491 326418291 5107172#0 5107172#1 264221488 -145173768 -30032439 -38059362 -217999473 -326418282 -38059361 -326418283 -30032441 -217999472 -290573638 -45559083 -217999470 -187388862 -326418285 -326418284 -38059694 -199222147 -326418280 -25921099 -326418286 -326418281 -96400328 -52381449 -412954624 -5107127 5107127 412954624 52381449 96400328 326418281 326418286 22109176 -46737898 38331791#0 38331791#1 43874929 43793487 10264302#0 10264302#1 38331796#0 38331796#1 38331796#2 38331797#0 216226407#0 216226407#1 -216226409"/>
    </vehicle>
    <vehicle id="12" depart="12.00">
        <route edges="132908614#0 -132908614#0 -15777958#1 -15777958#0 159190385 5107173 264221491 187384034 -157150674#6 4082047#0 4082047#1 4082047#2 4082047#3 4082047#4 4082047#5 4082047#6 -4082047#6"/>
    </vehicle>
    <vehicle id="13" depart="13.00">
        <route edges="1678518#3 1678518#4 1678518#5 -4082047#10 -4082047#9 -4082047#8 -4082047#7 -4082047#6 -4082047#5"/>
    </vehicle>
    <vehicle id="16" depart="16.00">
        <route edges="19826522 -253354846 46737894 38059362 30032439 145173768 52937669 264221489 419858870 264221490 5107173 264221491 187384034 -157150674#6 4082047#0 4082047#1 4082047#2 4082047#3 4082047#4 4082047#5 4082047#6 4082047#7 4082047#8 4082047#9 4082047#10"/>
    </vehicle>
    <vehicle id="17" depart="17.00">
        <route edges="130874151 157150674#3 157150674#4 157150674#5 157150674#6 15777956 264221492 419858870 15777957 15777958#0 15777958#1 132908614#0 132908614#1 -22338211#7 -22338211#6 22338211#6"/>
    </vehicle>
    <vehicle id="18" depart="18.00">
        <route edges="165385794 421614354 49201808#0 49201808#1 49201808#2 49201808#3 421614349 38331793#0 38331793#1 46737898 46737899 38059694 326418284 326418285 187388862 217999470 45559083 290573638 217999472 30032441 326418283 38059361 326418282 -326418282 -38059361 -326418283 -30032441 -217999472 13590165 -326418303 326418273"/>
    </vehicle>
    <vehicle id="19" depart="19.00">
        <route edges="38331806#1 412954610 -412954610 -38331806#1 -38331806#0 421614348 4901993#0 4901993#1 10264302#0 10264302#1 421614353 421614349 38331793#0 38331793#1 46737898 46737899 38059694 326418284 326418285 187388862 217999470 45559083 290573638 217999472 30032441 326418283 38059361 326418282 217999473 38059362 30032439 145173768 52937669 264221489 419858870 264221490 5107173 264221491 187384034 -157150674#6 -157150674#5 -157150674#4 -157150674#3 -157150674#2 -157150674#1 157150674#1"/>
    </vehicle>
    <vehicle id="23" depart="23.00">
        <route edges="38331806#0 -38331806#0 421614348 4901993#0 4901993#1 10264302#0 10264302#1 421614353 421614349 38331793#0 38331793#1 46737898 46737899 38059694 326418284 326418285 187388862 217999470 45559083 290573638 217999472 30032441 326418283 38059361 326418282 217999473 38059362 30032439 145173768 52937669 264221489 419858870 264221490 4082009 -421617196 -44369045"/>
    </vehicle>
    <vehicle id="24" depart="24.00">
        <route edges="44369045 421617196 52937670 264221491 326418291 5107172#0 5107172#1 264221488 -145173768 -30032439 -38059362 -217999473 -326418282 -38059361 -326418283 -30032441 -217999472 -290573638 -45559083 -217999470 -187388862 -326418285 -326418284 -38059694 -199222147 -326418280 -25921099 -326418286 -326418281 -96400328 -52381449 -412954624 -5107127 5107127 412954624 52381449 96400328 326418281 326418286 22109176 -46737898 38331791#0"/>
    </vehicle>
    <vehicle id="25" depart="25.00">
        <route edges="-157150670#4 -157150670#3 -157150670#2 -157150670#1 -157150670#0 157150674#4 157150674#5 157150674#6 15777956 264221492 419858870 15777957 15777958#0 15777958#1 132908614#0 -22338210#8 -22338210#7 -22338210#6 -22338210#5 -22338210#4 -22338210#3 -22338210#2 -22338210#1 -22338210#0"/>
    </vehicle>
    <vehicle id="26" depart="26.00">
        <route edges="192964804#0 192964804#1 132908614#0 -22338210#8 -22338210#7 -22338210#6 -22338210#5 22338211#0 -22338211#0"/>
    </vehicle>
    <vehicle id="28" depart="28.00">
        <route edges="38331796#2 38331797#0 38331797#1 38331797#2 38331797#3 421624048 421614354 49201808#0 49201808#1 49201808#2 49201808#3 421614349 38331793#0 38331793#1 46737898 46737899 38059694 326418284 326418285 187388862 217999470 45559083 290573638 217999472 30032441 326418283 38059361 326418282 -326418282 -38059361 -326418283 -30032441"/>
    </vehicle>
    <vehicle id="29" depart="29.00">
        <route edges="-326418285 -326418284 -38059694 -199222147 -326418280 -25921099 -326418286 -326418281 -96400328 -52381449 -412954624 -5107127 5107127 412954624 52381449 96400328 326418281 326418286 22109176 -46737898 38331791#0 38331791#1 43874929 38331805#0 38331805#1 38331806#0 38331806#1 412954610 412954611"/>
    </vehicle>
    <vehicle id="30" depart="30.00">
        <route edges="49201808#2 49201808#3 421614349 421614352 43874929 43793487 10264302#0 10264302#1 38331796#0 38331796#1 38331796#2 38331797#0 38331797#1 38331797#2 38331797#3 49201833 -144959664 -49201828 -81536351 -421614357 -412618719#1 -412618719#0 -412618718 412618718"/>
    </vehicle>
    <vehicle id="31" depart="31.00">
        <route edges="412618719#1 199222162 -326418280 -25921099 -326418286 -326418281"/>
    </vehicle>
    <vehicle id="32" depart="32.00">
        <route edges="-421614357 -412618719#1 412618719#1 199222162 -326418280 -25921099 -326418286 -326418281 -96400328 -52381449"/>
    </vehicle>
    <vehicle id="33" depart="33.00">
        <route edges="-22338211#2 22338211#2 22338211#3 22338211#4 22338211#5 22338211#6 22338211#7 132908614#2"/>
    </vehicle>
    <vehicle id="34" depart="34.00">
        <route edges="-326418284 -38059694 -199222147 -326418280 -25921099 -326418286 -326418281 -96400328 -52381449 -412954624 -5107127 5107127 412954624 52381449 96400328 326418281 326418286 22109176 -46737898 38331791#0 38331791#1 43874929 38331805#0 38331805#1 38331806#0 38331806#1"/>
    </vehicle>
    <vehicle id="36" depart="36.00">
        <route edges="38059361 326418282 217999473 38059362 30032439 145173768 52937669 264221489 419858870 15777957 15777958#0 15777958#1 132908614#0 -22338210#8 -41213181#1 -41213181#0"/>
    </vehicle>
    <vehicle id="37" depart="37.00">
        <route edges="22338210#7 -22338210#7 -22338210#6"/>
    </vehicle>
    <vehicle id="39" depart="39.00">
        <route edges="4082047#10 -4082047#10 -4082047#9 -4082047#8 -4082047#7 -4082047#6 -4082047#5 -4082047#4 -4082047#3 -4082047#2 -4082047#1 -4082047#0 157150674#6 15777956 5107172#0 5107172#1 264221488 -145173768 -30032439 -38059362 -217999473 -326418282 -38059361 -326418283 -30032441 -217999472 -290573638 -45559083 -217999470 -187388862 -326418285 -326418284 -38059694 -199222147 -326418280 -25921099 -326418286 -326418281 -96400328 -52381449 -412954624 -5107127 5107127 412954624 52381449 96400328 326418281 326418286 22109176 -46737898 38331791#0 38331791#1 43874929 43793487 10264302#0 10264302#1 38331796#0 38331796#1 38331796#2 38331797#0 216226407#0"/>
    </vehicle>
    <vehicle id="40" depart="40.00">
        <route edges="53632599 53632596 53632598 53632597 -53632597 -53632598 -53632596"/>
    </vehicle>
    <vehicle id="41" depart="41.00">
        <route edges="-38331806#0 421614348 4901993#0 4901993#1 10264302#0 10264302#1 421614353 421614349 38331793#0 38331793#1 46737898"/>
    </vehicle>
    <vehicle id="42" depart="42.00">
        <route edges="264221491 326418291 5107172#0 5107172#1 264221488 -145173768 -30032439 -38059362 -217999473 -326418282 -38059361 -326418283 -30032441 -217999472 217999472 30032441 326418283 38059361 326418282 19798099 253354846 253354841 326418297 30032437"/>
    </vehicle>
    <vehicle id="43" depart="43.00">
        <route edges="-22338211#2 -22338211#1 -22338211#0 22338210#5 22338210#6 22338210#7 22338210#8"/>
    </vehicle>
    <vehicle id="45" depart="45.00">
        <route edges="421624048 421614354 421624047 38331797#0 38331797#1 38331797#2 38331797#3 49201833 -144959664 -49201828 -81536351 -421614357 -412618719#1 -412618719#0 -412618718 -412618716 -59374020"/>
    </vehicle>
    <vehicle id="46" depart="46.00">
        <route edges="38331793#0 38331793#1 46737898 46737899 38059694 326418284 326418285 187388862 217999470 45559083 290573638 217999472 30032441 326418283 38059361 326418282 217999473 38059362 30032439 145173768 52937669 264221489 419858870 264221490 5107173 264221491 187384034 -157150674#6 -157150674#5"/>
    </vehicle>
    <vehicle id="47" depart="47.00">
        <route edges="1678518#0 1678518#1 1678518#2 1678518#3 1678518#4 1678518#5 -4082047#10 8009745#0"/>
    </vehicle>
    <vehicle id="48" depart="48.00">
        <route edges="412954648#0 412954648#1 -412954611 -412954610 -38331806#1 -38331806#0 421614348 4901993#0 4901993#1 10264302#0 10264302#1 421614353 421614349 38331793#0 38331793#1 46737898 46737899 38059694 326418284 326418285 187388862 217999470 45559083 290573638 217999472 30032441 326418283 38059361 326418282 217999473 38059362 30032439 145173768 52937669 264221489 419858870 15777957 15777958#0 15777958#1 132908614#0 -132908614#0"/>
    </vehicle>
    <vehicle id="49" depart="49.00">
        <route edges="-44369045 -419858869 419858869 44369045 421617196 52937670 264221491 326418291 5107172#0 5107172#1 264221488 -145173768 -30032439 -38059362 -217999473 -326418282 -38059361 -326418283 -30032441 -217999472 -290573638 -45559083 -217999470 -187388862 -326418285 -326418284 -38059694 -199222147 -326418280 -25921099 -326418286 -326418281 -96400328 -52381449 -412954624 -5107127 5107127 412954624 52381449 96400328 326418281 326418286 22109176 -46737898 38331791#0 38331791#1 43874929 38331805#0 38331805#1 38331806#0 38331806#1 412954610"/>
    </vehicle>
    <vehicle id="50" depart="50.00">
        <route edges="-38331806#0 421614348 4901993#0 4901993#1 10264302#0 10264302#1 421614353 421614349 38331793#0 38331793#1 46737898 46737899 38059694 326418284 326418285 187388862 217999470 45559083 290573638 217999472 30032441 326418283 38059361 326418282 217999473 38059362 30032439 145173768 52937669 264221489 419858870 264221490 5107173 264221491 187384034 -157150674#6 -157150674#5 -157150674#4 -157150674#3 157150674#3"/>
    </vehicle>
    <vehicle id="51" depart="51.00">
        <route edges="-132908614#2 -132908614#1 -132908614#0 -15777958#1 -15777958#0 159190385 5107173 264221491 326418291 5107172#0 5107172#1 264221488 -145173768 -30032439 -38059362 -217999473 -326418282 -38059361 -326418283 -30032441 -217999472 13590165 -326418303 326418273 326418288 326418287 144117526 46737902"/>
    </vehicle>
    <vehicle id="52" depart="52.00">
        <route edges="13589671 19826522 -253354846 46737894 38059362 30032439 145173768 52937669"/>
    </vehicle>
    <vehicle id="53" depart="53.00">
        <route edges="-157150670#4 -157150670#3 -157150670#2 -157150670#1 -157150670#0 157150674#4 157150674#5 157150674#6 15777956 264221492 419858870 15777957 15777958#0 15777958#1 132908614#0 -22338210#8 -41213181#1 41213181#1"/>
    </vehicle>
    <vehicle id="54" depart="54.00">
        <route edges="4082047#8 -4082047#8 -4082047#7 -4082047#6 -4082047#5 -4082047#4 -4082047#3 -4082047#2 -4082047#1 -4082047#0 157150674#6 15777956 264221492 419858870 15777957 15777958#0 15777958#1 132908614#0 -22338210#8 -22338210#7 -22338210#6 -22338210#5 22338211#0 22338211#1"/>
    </vehicle>
    <vehicle id="55" depart="55.00">
        <route edges="-1678518#2 1678518#2 1678518#3 1678518#4 1678518#5 -4082047#10 -4082047#9 -4082047#8 -4082047#7 -4082047#6 -4082047#5 -4082047#4 -4082047#3 -4082047#2 -4082047#1 -4082047#0 157150674#6 15777956 5107172#0 5107172#1 264221488 -145173768 -30032439 -38059362 -217999473 -326418282 -38059361 -326418283 -30032441 -217999472 -290573638 -45559083 -217999470 -187388862 -326418285 -326418284 -38059694 38059694 326418284 326418285 187388862 19798104 217999469"/>
    </vehicle>
    <vehicle id="57" depart="57.00">
        <route edges="264221489 419858870 264221490 5107173 264221491 326418291 5107172#0 5107172#1 264221488 -145173768 -30032439 -38059362 -217999473 -326418282 -38059361 -326418283 -30032441 -217999472 13590165 -326418303 326418273 326418288 326418287"/>
    </vehicle>
    <vehicle id="58" depart="58.00">
        <route edges="38331796#1 38331796#2 38331797#0 38331797#1 38331797#2 38331797#3 49201833 -144959664 -49201828 -81536351 -421614357 -412618719#1 412618719#1 199222162 -326418280 -25921099 -326418286 -326418281 -96400328 -52381449 -412954624 -5107127 5107127 412954624 52381449 96400328 326418281 326418286 25921099 326418280"/>
    </vehicle>
    <vehicle id="59" depart="59.00">
        <route edges="10264302#0 10264302#1 421614353 421614349 38331793#0 38331793#1 46737898 46737899 38059694 326418284 326418285 187388862 -187388862 -326418285 -326418284 -38059694 -199222147 -326418280 -25921099 -326418286 -326418281 -96400328 -52381449 -412954624 -5107127 5107127 412954624 52381449 96400328"/>
    </vehicle>
    <vehicle id="61" depart="61.00">
        <route edges="253354841 326418297 46737892 424788928 -326418282 -38059361 -326418283 -30032441 -217999472 -290573638 -45559083 -217999470 -187388862 -326418285 -326418284 -38059694 -199222147 199222147"/>
    </vehicle>
    <vehicle id="63" depart="63.00">
        <route edges="-157150674#1 157150674#1 157150674#2 157150674#3 157150670#0 -157150670#0"/>
    </vehicle>
    <vehicle id="65" depart="65.00">
        <route edges="421614354 49201808#0 49201808#1 49201808#2 49201808#3 421614349 38331793#0 38331793#1 46737898 46737899 38059694 326418284 326418285 187388862 217999470 45559083 290573638 217999472 30032441 326418283 38059361 326418282 217999473 38059362 30032439 145173768 52937669 264221489 419858870 264221490 5107173 264221491 187384034 -157150674#6 -157150674#5 -157150674#4 157150674#4"/>
    </vehicle>
    <vehicle id="67" depart="67.00">
        <route edges="-157150670#4 -157150670#3 -157150670#2 -157150670#1 -157150670#0 157150674#4 157150674#5 157150674#6 15777956 5107172#0 5107172#1 264221488 -145173768 -30032439 -38059362 -217999473 -326418282 -38059361 -326418283 -30032441 -217999472 13590165 -326418303 326418303"/>
    </vehicle>
    <vehicle id="68" depart="68.00">
        <route edges="38331805#0 38331805#1 421614348 4901993#0 4901993#1 10264302#0 10264302#1 421614353 421614349 38331793#0 38331793#1 46737898 46737899 38059694 326418284 326418285 187388862 217999470 45559083 290573638 217999472 30032441 326418283 38059361 326418282 217999473 38059362 30032439 145173768 52937669 264221489 419858870 15777957 15777958#0 15777958#1 132908614#0 -22338210#8 -22338210#7 -22338210#6 -22338210#5"/>
    </vehicle>
    <vehicle id="69" depart="69.00">
        <route edges="46737894 38059362 30032439 145173768 52937669 264221489 419858870 264221490 5107173 264221491 326418291 264221492"/>
    </vehicle>
    <vehicle id="70" depart="70.00">
        <route edges="253354845 38331797#2 38331797#3 421624048 421614354 49201808#0 49201808#1 49201808#2 49201808#3 421614349 38331793#0 38331793#1 46737898 46737899 38059694 326418284 326418285 187388862 217999470 45559083 290573638 217999472 30032441 326418283 38059361 326418282 217999473 38059362 30032439 145173768 52937669 264221489 419858870 264221490 5107173 264221491 187384034 -157150674#6 4082047#0 4082047#1 4082047#2 4082047#3 4082047#4 4082047#5 4082047#6 4082047#7 4082047#8 4082047#9 8009745#0 8009745#1"/>
    </vehicle>
    <vehicle id="71" depart="71.00">
        <route edges="192964804#1 -15777958#1 -15777958#0 159190385 5107173 264221491 326418291 5107172#0 5107172#1 264221488 -145173768 -30032439 -38059362 -217999473 -326418282 -38059361 -326418283 -30032441 -217999472 -290573638 -45559083 -217999470 -187388862 -326418285 -326418284 -38059694 -199222147 -326418280 -25921099 -326418286 -326418281 -96400328 -52381449 -412954624 -5107127 5107127 412954624 52381449 96400328 326418281 326418286 22109176 -46737898 38331791#0 38331791#1 43874929 38331805#0 38331805#1 421614348"/>
    </vehicle>
    <vehicle id="72" depart="72.00">
        <route edges="30032441 326418283 38059361 326418282 -326418282 -38059361 -326418283 -30032441 -217999472 -290573638 -45559083 -217999470 -187388862 -326418285 -326418284 -38059694 -199222147 -326418280 -25921099 -326418286 -326418281 -96400328 -52381449 -412954624 -5107127 5107127 412954624 52381449 96400328 326418281 326418286 22109176 -46737898 38331791#0 38331791#1 43874929 38331805#0 38331805#1 38331806#0 38331806#1 412954610 -412954610"/>
    </vehicle>
    <vehicle id="74" depart="74.00">
        <route edges="38331797#1 38331797#2 38331797#3 421624048 421614354 49201808#0 49201808#1 49201808#2 49201808#3 421614349 38331793#0 38331793#1 46737898 46737899 38059694 326418284 326418285 187388862 217999470 45559083 290573638 217999472 30032441 326418283 38059361 326418282 217999473 38059362 30032439 145173768 52937669 264221489 419858870 15777957 15777958#0 15777958#1"/>
    </vehicle>
    <vehicle id="75" depart="75.00">
        <route edges="-145173768 -30032439 -38059362 -217999473 -326418282 -38059361 -326418283 -30032441 -217999472 -290573638 -45559083 -217999470 -187388862 -326418285 -326418284 -38059694 -199222147 -326418280 -25921099 -326418286 -326418281 -96400328 -52381449 -412954624 -5107127 5107127 412954624 52381449 96400328 326418281 326418286 22109176 -46737898 38331791#0 38331791#1 43874929 38331805#0 38331805#1 38331806#0 38331806#1 412954610 412954611 -412954648#1 -412954648#0 412954636#0 412954636#1 412954646"/>
    </vehicle>
    <vehicle id="76" depart="76.00">
        <route edges="22338210#2 22338210#3 22338210#4 22338210#5 22338210#6 22338210#7 22338210#8 -132908614#0 -15777958#1 -15777958#0 159190385 5107173 264221491 326418291 5107172#0 5107172#1 264221488 -145173768 -30032439 -38059362 -217999473 -326418282 -38059361 -326418283 -30032441 -217999472 -290573638 -45559083 -217999470 -187388862 -326418285 -326418284 -38059694 -199222147 -326418280 -25921099 -326418286 -326418281 -96400328 -52381449 -412954624 -5107127 5107127 412954624 52381449 96400328 326418281 326418286 22109176 -46737898 38331791#0 38331791#1 43874929 43793487 10264302#0 10264302#1 38331796#0 38331796#1 38331796#2 38331797#0 38331797#1 38331797#2 38331797#3 49201833 -144959664 -49201828 -81536351 -421614357 -412618719#1 412618719#1 199222162"/>
    </vehicle>
    <vehicle id="77" depart="77.00">
        <route edges="30032439 145173768 52937669 264221489 419858870 264221490 5107173 264221491 187384034 -157150674#6 4082047#0 4082047#1 4082047#2 4082047#3 4082047#4 4082047#5 4082047#6 4082047#7 4082047#8 -4082047#8"/>
    </vehicle>
    <vehicle id="78" depart="78.00">
        <route edges="157150674#1 157150674#2 157150674#3 157150674#4 157150674#5 157150674#6 15777956 5107172#0 5107172#1 264221488 -145173768 -30032439 -38059362 -217999473 -326418282 -38059361 -326418283 -30032441 -217999472 -290573638 -45559083 -217999470 -187388862 -326418285 -326418284 -38059694 -199222147 -326418280 -25921099 -326418286 -326418281 -96400328 -52381449 -412954624 -5107127 5107127 412954624 52381449 96400328 326418281 326418286 22109176 -46737898 38331791#0 38331791#1 43874929 43793487 10264302#0 10264302#1 38331796#0 38331796#1 38331796#2 38331797#0 38331797#1 38331797#2 38331797#3"/>
    </vehicle>
    <vehicle id="79" depart="79.00">
        <route edges="52937670 264221491 326418291 5107172#0 5107172#1 264221488 -145173768 -30032439 -38059362 -217999473 -326418282 -38059361 -326418283 -30032441 -217999472 217999472 30032441 326418283 38059361 326418282 19798099 253354846 253354841 326418297 46737892"/>
    </vehicle>
    <vehicle id="80" depart="80.00">
        <route edges="-4046554 -412954611 -412954610 -38331806#1 -38331806#0 421614348 4901993#0 4901993#1 10264302#0 10264302#1 421614353 421614349 38331793#0 38331793#1 46737898 46737899 38059694 326418284 326418285 187388862 217999470 45559083 290573638 217999472 30032441 326418283 38059361 326418282 217999473 38059362 30032439 145173768 52937669 264221489 419858870 264221490 5107173 264221491 187384034 -157150674#6 4082047#0 4082047#1 4082047#2 4082047#3 4082047#4 4082047#5 -4082047#5"/>
    </vehicle>
    <vehicle id="82" depart="82.00">
        <route edges="421614348 4901993#0 4901993#1 10264302#0 10264302#1 421614353 421614349 38331793#0 38331793#1 46737898 46737899 38059694 326418284 326418285 187388862 217999470 45559083 290573638 217999472 30032441 326418283 38059361 326418282 -326418282"/>
    </vehicle>
    <vehicle id="83" depart="83.00">
        <route edges="-22338210#3 22338210#3 22338210#4 22338210#5 22338210#6 22338210#7 22338210#8 -132908614#0 -15777958#1 -15777958#0 159190385 5107173 264221491 187384034 -157150674#6 4082047#0 4082047#1 4082047#2 4082047#3 4082047#4 4082047#5 4082047#6"/>
    </vehicle>
    <vehicle id="84" depart="84.00">
        <route edges="-326418280 -25921099 -326418286 -326418281 -96400328 -52381449 -412954624 -5107127 5107127 412954624 52381449 96400328 326418281 326418286 22109176 -46737898 38331791#0 38331791#1 43874929 43793487 10264302#0 10264302#1 38331796#0 38331796#1 38331796#2 38331797#0 38331797#1 38331797#2 38331797#3 49201833 -144959664 -49201828 -81536351 -421614357"/>
    </vehicle>
    <vehicle id="85" depart="85.00">
        <route edges="-22338210#8 22338210#8 -132908614#0 -15777958#1 -15777958#0 159190385 5107173 264221491 187384034 -157150674#6 4082047#0 4082047#1 4082047#2 4082047#3 4082047#4 4082047#5 4082047#6 4082047#7 4082047#8"/>
    </vehicle>
    <vehicle id="86" depart="86.00">
        <route edges="194606312 326418303 326418301 -45559083 -217999470 -187388862 -326418285 -326418284 -38059694 -199222147 -326418280 -25921099 -326418286 -326418281 -96400328 -52381449 -412954624 -5107127 5107127 412954624 52381449 96400328 326418281 326418286 22109176 -46737898 38331791#0 38331791#1 43874929 43793487 10264302#0 10264302#1 38331796#0 38331796#1"/>
    </vehicle>
    <vehicle id="87" depart="87.00">
        <route edges="-53632598 -53632596 -53632599 157150674#5 157150674#6 15777956 5107172#0 5107172#1 264221488 -145173768 -30032439 -38059362 -217999473 -326418282 -38059361 -326418283 -30032441 -217999472 -290573638 -45559083 -217999470 -187388862 -326418285 -326418284 -38059694 -199222147 -326418280 -25921099 -326418286 -326418281 -96400328 -52381449 -412954624 -5107127"/>
    </vehicle>
    <vehicle id="92" depart="92.00">
        <route edges="-326418285 -326418284 -38059694 38059694 326418284 326418285 187388862 217999470 45559083 290573638 217999472 30032441 326418283 38059361 326418282 217999473 38059362 30032439 145173768 52937669 264221489 419858870 15777957 15777958#0 41213181#5"/>
    </vehicle>
    <vehicle id="93" depart="93.00">
        <route edges="421614349 38331793#0 38331793#1 46737898 46737899 38059694 326418284 326418285 187388862 217999470 45559083 290573638 217999472 30032441 326418283 38059361 326418282 217999473 38059362 30032439 145173768 52937669 264221489 419858870 15777957 15777958#0"/>
    </vehicle>
    <vehicle id="94" depart="94.00">
        <route edges="290573638 217999472 30032441 326418283 38059361 326418282 -326418282 -38059361"/>
    </vehicle>
    <vehicle id="95" depart="95.00">
        <route edges="253354841 326418297 46737892 424788928 -326418282 -38059361 -326418283 -30032441 -217999472 -290573638 -45559083 -217999470 -187388862 -326418285 -326418284 -38059694 -199222147 -326418280 -25921099 -326418286 -326418281 -96400328 -52381449 -412954624 -5107127 5107127 412954624 52381449 96400328 326418281 326418286 22109176 -46737898 38331791#0 38331791#1 43874929 43793487 10264302#0 10264302#1 38331796#0 38331796#1 38331796#2 38331797#0 38331797#1 38331797#2 38331797#3 49201833 -144959664"/>
    </vehicle>
    <vehicle id="96" depart="96.00">