<tazs xmlns:xsi="http://www.w3.org/2001/XMLSchema-instance" xsi:noNamespaceSchemaLocation="http://sumo.dlr.de/xsd/taz_file.xsd">
    <taz edges="-107076306 -107076308#0 -107103752#0 -107103752#1 -107103752#2 -119140950#0 -119140950#1 -119140950#2 -119140950#4 -120333204 -144137427#0 -144137427#1 -144137432#0 -144137432#1 -144959664 -146910461 -154182822#0 -154182822#1 -154182822#2 -182748225 -186925274 -187388862 -191428857 -191428858#0 -191428858#1 -216226408 -216226409 -216510383 -216510384 -216510385#0 -216510385#1 -216510385#2 -216510385#3 -217449833#0 -217449833#1 -240829815#0 -240829815#1 -27199842 -27199868#0 -27199868#1 -27199884 -31091368 -326418280 -326418281 -326418284 -326418286 -361506385#0 -361506385#1 -361506385#2 -361506385#3 -361506385#4 -361506385#5 -361506385#6 -36996484 -36996485#0 -36996487#0 -37740515#0 -37740515#1 -37740515#2 -38059692 -38331803 -38331806#0 -4046554#0 -4046554#2 -4046554#3 -412618711 -412618714#0 -412618715 -412618716 -412618717 -412618718 -412618719#0 -412618719#1 -412954610 -412954611 -412954632 -412954633 -412954634 -412954635 -412954640 -412954648#0 -412954648#1 -412954649 -45559083 -46737898 -4778501 -49201828 -49201848#0 -49201848#1 -49201848#2 -5107127 -518807821 -518807824#2 -518807824#3 -52381439#0 -52381439#1 -52381439#2 -52381439#3 -52381441#0 -52381441#1 -52381441#3 -59374020 -59374025 -596915961#3 -596915961#4 -596915961#5 -596915961#6 -68526365 -80638158 -83629675 -83629678#0 -83629678#1 -83629678#2 -96400328 10264302#0 10264302#1 10264302#2 10264302#3 10264302#4 107076306 107103752#1 107103752#2 119140949#0 119140950#0 119140950#1 119140950#2 119140950#4 120333204 144137427#0 144137427#1 144137432#0 144137432#1 144137433#0 144137433#1 144137437#0 144137437#1 144959664 146910461 154182822#0 154182822#1 154182822#2 154182822#3 165385794 182748225 186925274 191428857 191428858#0 191428858#1 191428860 19798104 199222162 199222184#1 216226407#0 216226407#1 216226408 216226409 216510383 216510384 216510385#0 216510385#1 216510385#2 216510385#3 217449833#0 217449833#1 217999470 22109176 238896280#0 238896280#1 240829815#0 240829815#1 243092496#0 243092496#1 253354845 25921099 27199842 27199868#0 27199868#1 27199884 31091368 326418281 326418285 326418286 361506385#0 361506385#1 361506385#2 361506385#3 361506385#4 361506385#5 361506385#6 36996485#0 36996485#1 36996487#0 36996487#1 37740515#0 37740515#1 37740515#2 37740516#1 37740516#2 37740516#3 37740516#4 38059692 38059694 38085092#0 38085092#1 38331791#0 38331791#1 38331793#0 38331793#1 38331796#0 38331796#1 38331796#2 38331797#0 38331797#1 38331797#2 38331797#3 38331801#0 38331801#1 38331803 38331805#0 38331805#1 38331806#0 38331806#1 398234683 398234684 398234685 398398151 398398152 398398153 4046554#0 4046554#2 4046554#3 40804670 40804671 412618715 412618716 412618717 412618718 412618719#0 412618719#1 412954611 412954624 412954632 412954633 412954634 412954635 412954636#0 412954636#1 412954648#0 412954648#1 412954649 421614348 421614349 421614352 421614353 421614354 421614357 421624047 421624048 43793487 43874929 46737898 46737899 4901993#0 4901993#1 4901998#1 4901998#2 4901998#3 4901998#4 4901999 49201808#0 49201808#1 49201808#2 49201808#3 49201833 49201848#0 49201848#1 49201848#2 5059726 5059728 5059730 5107127 518807821 518807824#2 518807824#3 52381439#0 52381439#1 52381439#2 52381439#3 52381440 52381441#0 52381441#1 52381441#3 56239369 58683698 58683699 58683700 58698092#0 58698092#1 58698093#0 58698093#1 58698095#0 58698095#1 58698096#0 58698096#1 58698097#0 58698097#1 59374020 59374025 596915961#5 596915961#6 596915961#7 68526365 80303991 83629675 83629678#0 83629678#1 83629678#2 96020716#0 96020716#1 96020721#0 96020721#1" id="aschheim_west" />
    <taz edges="-122401180 -157149627 -157152190#0 -157152190#1 -157152190#2 -157152190#3 -157152190#4 -157152192#0 -157152192#1 -157152192#3 -169445058 -19195949#1 -211364287 -24245994 -27444291 -304254611 -35580594 -35580596 -369182824 -403212739 -4045955#0 -4045955#1 -466783103 -466783104#0 -61925002#2 122401180 157149627 157152190#0 157152190#1 157152190#2 157152190#3 157152190#4 157152192#0 157152192#1 157152192#3 169445058 19195949#1 211364287 24245994 27444291 304254611 35580594 35580596 369182825 403212739 4045955#0 4045955#1 466783103 466783104#0 61925002#2" id="ebersberg_east" />
    <taz edges="-10505524#0 -10505524#1 -10505524#2 -10505524#3 -11966402#1 -11966402#2 -11966402#3 -11966402#4 -11966402#5 -11966402#7 -11966403#0 -11966403#1 -11966403#2 -11966407#0 -11966407#1 -11966410#0 -11966410#2 -11966412#0 -11966412#1 -11966413#0 -11966413#1 -11966413#2 -11966413#3 -11966414#0 -11966414#1 -11966414#2 -11966414#3 -11966414#4 -11966414#5 -11966414#6 -11966414#7 -11966416#1 -11966416#2 -11966416#3 -11966416#6 -11966416#8 -11966417#0 -11966417#1 -11966417#2 -11966417#3 -11966432#0 -11966432#1 -11966432#2 -11966432#3 -11966435 -11966436#0 -11966436#1 -11966436#2 -11966436#3 -11966857#0 -11966857#1 -11966857#2 -132857756#2 -132857756#3 -132857756#8 -132857757#0 -132857757#1 -132857757#3 -167801604#0 -167801604#3 -167801604#4 -167801604#5 -167801604#6 -167801604#7 -167801604#8 -167801604#9 -167978333#0 -167978333#1 -167978333#10 -167978333#11 -167978333#12 -167978333#13 -167978333#14 -167978333#15 -167978333#16 -167978333#2 -167978333#3 -167978333#4 -167978333#5 -167978333#6 -167978333#7 -172026612#0 -172026612#1 -17749020#0 -17749020#1 -17749020#2 -17749020#3 -17749020#4 -17749021 -190819940#1 -196193008#0 -196193012#0 -196193012#1 -196193012#3 -196193012#4 -196193012#6 -196193012#7 -221093011 -27866152 -31427683#0 -31427683#1 -31427683#2 -31427683#3 -31427683#4 -31427683#6 -31427683#8 -31427683#9 -31427705#0 -31427705#1 -31427705#5 -31427705#6 -31427705#8 -31427705#9 -341128265#0 -341128265#1 -341128265#2 -341128265#3 -341128265#4 -341128265#5 -341128265#6 -342129846#0 -342129846#1 -344110604#0 -344110604#1 -345235538#0 -371961405#0 -371961405#1 -371961405#2 -371961405#3 -38526008#0 -38526008#1 -38526008#11 -38526008#13 -38526008#14 -38526008#15 -38526008#16 -38526008#3 -38526008#4 -38526008#5 -38526008#9 -4046580#0 -4046580#1 -4046580#2 -4046580#3 -4046933#0 -4046933#1 -431553656#0 -431553656#2 -78346874#0 -78766899#0 10505524#0 10505524#1 10505524#2 10505524#3 11966402#1 11966402#2 11966402#3 11966402#4 11966402#5 11966402#7 11966403#0 11966403#1 11966403#2 11966407#0 11966407#1 11966410#0 11966410#2 11966412#0 11966412#1 11966413#0 11966413#1 11966413#2 11966413#3 11966414#0 11966414#1 11966414#2 11966414#3 11966414#4 11966414#5 11966414#6 11966414#7 11966416#1 11966416#2 11966416#3 11966416#6 11966416#8 11966417#0 11966417#1 11966417#2 11966417#3 11966431 11966432#0 11966432#1 11966432#2 11966432#3 11966433 11966435 11966436#0 11966436#1 11966436#2 11966436#3 11966857#0 11966857#1 11966857#2 132857756#2 132857756#3 132857756#8 132857757#0 132857757#1 132857757#3 167801604#0 167801604#3 167801604#4 167801604#5 167801604#6 167801604#7 167801604#8 167801604#9 167978333#0 167978333#1 167978333#10 167978333#11 167978333#12 167978333#13 167978333#14 167978333#15 167978333#16 167978333#2 167978333#3 167978333#4 167978333#5 167978333#6 167978333#7 172026612#0 172026612#1 17749018#0 17749018#1 17749018#2 17749020#0 17749020#1 17749020#2 17749020#3 17749020#4 17749021 190819940#1 196193006#0 196193006#1 196193006#10 196193006#11 196193006#3 196193006#5 196193006#7 196193008#0 196193012#0 196193012#1 196193012#3 196193012#4 196193012#6 196193012#7 221093011 27866152 31427683#0 31427683#1 31427683#2 31427683#3 31427683#4 31427683#6 31427683#8 31427683#9 31427705#0 31427705#1 31427705#5 31427705#6 31427705#8 31427705#9 341128265#0 341128265#1 341128265#2 341128265#3 341128265#4 341128265#5 341128265#6 342129846#0 342129846#1 344110604#0 344110604#1 345235538#0 371961405#0 371961405#1 371961405#2 371961405#3 38526008#0 38526008#1 38526008#11 38526008#13 38526008#14 38526008#15 38526008#16 38526008#3 38526008#4 38526008#5 38526008#9 38526095#0 38526095#1 38526095#2 38526095#3 4046580#0 4046580#1 4046580#2 4046580#3 4046933#0 4046933#1 431553656#0 431553656#2 78346874#0 78766899#0 78766899#1 78766899#2" id="feldkirchen_west" />
    <taz edges="-144959665 -157146830 -157147523#0 -157147523#1 -157147523#2 -157149624#0 -172675260 -172675262#0 -172675262#1 -173168679#0 -173168679#1 -22328004#0 -22328004#1 -22328010#0 -22328011 -22341882 -25921301#0 -25921301#1 -25921301#3 -26007022#0 -26007022#1 -26007022#2 -26007022#3 -26007022#4 -26007022#5 -307570927#0 -307570927#1 -307570927#2 -307570927#3 -34335059 -34335064 -345235527#1 -345235527#2 -345235540 -62143074 -62143075#0 -62143075#1 -63067505 -8227799#0 -8227799#1 -8227799#2 144959665 157147523#0 157147523#1 157147523#2 171610162#3 172675262#0 172675262#1 172675295#1 173168679#0 173168679#1 173168683 195383026#1 206030309#1 206030314#0 206030314#1 22327902#4 22328004#0 22328004#1 22328010#0 22328010#1 22328011 22341882 25921294 25921301#0 25921301#1 25921301#3 26007021 26007022#0 26007022#1 26007022#2 26007022#3 26007022#4 26007022#5 307570927#1 34335064 62143075#0 62143075#1 62143075#2 63067505 8227799#0 8227799#1 8227799#2" id="heimstetten_industrial_1" />
    <taz edges="-11966437#0 -11966437#1 -11966437#3 -11966437#4 -11966437#5 -11966437#7 -11966437#8 -11967580#0 -11967580#1 -11967580#2 -11967580#3 -11967580#4 -11967580#5 -157146830 -171610162#0 -171610162#1 -171610162#2 -172675260 -196193007#0 -196193007#1 -196193010 -28303350#2 -344843906 -345235519#0 -345235519#1 -345235519#2 -345235538#0 -61796286 -77049898#1 -77049898#2 -77049898#3 -77049898#4 -77049898#6 -77049898#7 -77049898#8 11966437#0 11966437#1 11966437#3 11966437#4 11966437#5 11966437#7 11966437#8 11967580#0 11967580#1 11967580#2 11967580#3 11967580#4 11967580#5 171610162#0 171610162#1 171610162#2 171610162#3 196193007#0 196193007#1 196193007#2 222143269 344843909 345235519#1 345235519#2 345235538#0 4046250#0 4046250#1 4046250#2 4046250#3 4046250#4 4046250#5 61796286 77049898#3" id="heimstetten_industrial_2" />
    <taz edges="-11966437#0 -11966437#1 -11966437#3 -11966437#4 -11966437#5 -11966437#7 -11966437#8 -11967580#0 -11967580#1 -11967580#2 -11967580#3 -11967580#4 -11967580#5 -11967582#0 -11967582#1 -11967582#2 -157146830 -157146838#0 -157146838#1 -157146844 -171610162#0 -171610162#1 -171610162#2 -172675260 -289210750#1 -292177227#1 -339454856 -344843906 -344843917 -344843925 -344843927#0 -344843927#1 -344843927#2 -344843927#3 -344843927#4 -345235519#0 -345235519#1 -345235519#2 -345235520#0 -345284151 -345284152 -345284154 -345284156 -345284158 -345284162 -345284166 -345284171#0 -345284171#1 -345284174#0 -345284174#1 -345284177#0 -345284177#1 -345284178#0 -345284178#1 -345284178#2 -345284179#0 -345284179#1 -345284180#0 -345284180#1 -345284181#0 -345284182#0 -345284182#1 -345284182#2 -345284182#3 -345284182#4 -345284184#0 -345284184#1 -345284184#2 -345284184#3 -345284184#4 -345284186#0 -345284186#1 -345284186#2 -345284186#3 -345284186#4 -345284186#5 -345284186#6 -345311193 -345311194 -47073797#0 -47073797#1 -47073797#2 -47073797#3 -47073797#4 -47073797#5 -47073797#7 -47073797#8 -61796286 102861999#2 102866162 107103760 11966437#0 11966437#1 11966437#3 11966437#4 11966437#5 11966437#7 11966437#8 11967580#0 11967580#1 11967580#2 11967580#3 11967580#4 11967580#5 11967582#0 11967582#1 11967582#2 157146834#1 157146834#2 157146838#0 157146838#1 157146844 171610162#0 171610162#1 171610162#2 171610162#3 172675290#0 172675290#1 172675290#2 172675290#3 196193007#2 196193009 22327999#2 289210750#1 289210752#0 289210752#1 292177227#1 339454856 344843836#0 344843836#1 344843909 344843914#1 344843917 344843925 344843927#0 344843927#1 344843927#2 344843927#3 344843927#4 345235519#1 345235519#2 345235520#0 345235532 345235533 345235534 345235535 345280758 345284151 345284152 345284153 345284154 345284155 345284156 345284157 345284158 345284159 345284160 345284162 345284163 345284166 345284171#1 345284174#0 345284174#1 345284177#1 345284178#0 345284178#1 345284178#2 345284179#0 345284179#1 345284180#1 345284181#0 345284181#1 345284182#0 345284182#1 345284182#2 345284182#3 345284182#4 345284184#0 345284184#1 345284184#2 345284184#3 345284184#4 345284186#0 345284186#1 345284186#2 345284186#3 345284186#4 345284186#5 345284186#6 345311193 345311194 47073797#1 47073797#2 47073797#3 47073797#4 47073797#5 47073797#7 47073797#8 61750696 61750697#0 61750697#1 61796286 690541464" id="heimstetten_industrial_origin_dest" />
    <taz edges="-101975654 -10864326#0 -10864326#1 -10864326#2 -10864389#0 -10864389#1 -10961653#0 -10961653#1 -10962242#0 -10962242#1 -10962377 -10962566#0 -10962566#1 -10962566#2 -10962566#3 -10962620#0 -10962620#1 -10962620#2 -10962814#0 -10962814#1 -10963550#0 -10963550#1 -10963550#2 -10964113#0 -10964113#1 -10964113#2 -10964360#0 -10964360#1 -10965170#0 -10965170#1 -10965170#2 -10965170#3 -10965170#4 -10965170#5 -10965170#6 -10965854#0 -10965854#1 -10965854#10 -10965854#11 -10965854#2 -10965854#3 -10965854#4 -10965854#5 -10965854#6 -10965854#7 -10965854#8 -10965854#9 -10966038#3 -10966038#4 -10966038#5 -10966038#6 -10966620#0 -10966620#1 -10966620#2 -11007576#0 -11007576#1 -11007659#0 -11007659#1 -120016126 -120016553 -132908614#0 -132908614#1 -132908614#10 -132908614#13 -132908614#14 -132908614#15 -132908614#3 -132908614#4 -132908614#5 -132908614#6 -132908614#7 -132908614#8 -132908614#9 -132908622 -135266443#0 -135266443#1 -135266443#2 -135266443#3 -135273574#0 -135273574#1 -135273575 -144959665 -153431406#0 -153431406#1 -153431406#2 -157146830 -157147523#0 -157147523#1 -157147523#2 -157147524#0 -157147524#11 -157147524#12 -157147524#13 -157147524#2 -157147524#4 -157147524#5 -157147524#7 -157147524#8 -157147524#9 -157148575#0 -157148575#1 -157148575#2 -157148579#0 -157148579#1 -157148579#2 -157148579#3 -157148579#4 -157148579#6 -157148586#0 -157148586#1 -157148586#2 -157148586#3 -157148586#4 -157149624#0 -157149624#2 -157149626#0 -157149992#0 -157149992#1 -157149992#2 -157149992#3 -157149992#4 -157149992#5 -157149992#6 -157149992#7 -157149992#8 -157149992#9 -157150384#0 -157150384#1 -15777958#0 -15777958#1 -159190393 -170948390#0 -170948390#1 -170948390#2 -170948390#3 -17148964#0 -17148964#1 -17148964#2 -17148964#3 -17148964#4 -17148964#5 -17148964#6 -17148964#7 -17148964#8 -172675260 -172675262#0 -172675262#1 -173168679#0 -173168679#1 -19190947#0 -19190947#1 -19190947#2 -19190948 -19195755#0 -19195755#1 -192475137#0 -192475137#1 -192964804#0 -192964804#1 -194571799 -194571800 -195153741#0 -195153741#1 -195153741#2 -195232382 -196670069 -196911942#0 -196911942#1 -196911942#2 -196911942#3 -198268796#0 -198268796#1 -198268796#2 -198268796#3 -198268796#4 -220788466#0 -220788466#1 -221093005 -221093006 -22323597#1 -22323597#2 -22323597#3 -22323598#0 -22323598#1 -22323598#3 -22323598#4 -22323598#5 -22323598#6 -22323598#7 -22323598#8 -22323598#9 -22323599#0 -22323599#1 -22323599#3 -22323599#4 -22325217 -22325218#1 -22325218#2 -22327897#0 -22327897#1 -22327898 -22327899 -22327900#0 -22327900#1 -22327901#0 -22327901#3 -22327902#0 -22327902#1 -22327902#2 -22327902#3 -22327904 -22327999#0 -22327999#1 -22328003#1 -22328003#2 -22328003#3 -22328003#4 -22328004#0 -22328004#1 -22328010#0 -22328011 -22328198#0 -22328198#1 -22328199 -22328200#0 -22328200#1 -22328200#2 -22328200#3 -22328200#4 -22328200#5 -22328200#6 -22328200#8 -22328205#0 -22328205#1 -22328205#2 -22328205#3 -22328205#4 -22328205#5 -22328205#6 -22328205#7 -22328205#8 -22328522#1 -22328522#10 -22328522#11 -22328522#12 -22328522#13 -22328522#3 -22328522#4 -22328522#5 -22328522#7 -22328522#8 -22328522#9 -22328531 -22328532 -22328533 -22328534 -22328536#0 -22328536#1 -22328537#0 -22328537#1 -22328537#2 -22328537#3 -22328537#4 -22328847#0 -22328847#1 -22328847#2 -22328848#0 -22328848#1 -22328848#2 -22328848#3 -22328848#4 -22328848#5 -22328848#6 -22328849#0 -22328849#1 -22328849#2 -22328849#3 -22328849#4 -22328852#0 -22328852#1 -22328852#2 -22328852#3 -22328853#0 -22328853#1 -22328854 -22328855 -22328909 -22328910#0 -22328910#1 -22328910#2 -22328910#3 -22328910#4 -22328910#5 -22328910#6 -22328910#7 -22328911 -22328913#0 -22328913#1 -22328913#2 -22328913#3 -22328913#4 -22328914#0 -22328914#1 -22328914#2 -22328914#3 -22328914#4 -22328914#5 -22330942 -22331052 -22331053 -22331056#1 -22331056#10 -22331056#11 -22331056#2 -22331056#3 -22331056#5 -22331056#6 -22331056#7 -22331056#8 -22331056#9 -22334431#0 -22334431#1 -22334457#1 -22334457#2 -22334457#3 -22334457#4 -22334457#6 -22337654#0 -22337654#1 -22337654#2 -22337655 -22337656#1 -22337656#10 -22337656#3 -22337656#4 -22337656#5 -22337656#6 -22337656#7 -22337656#8 -22337656#9 -22337658#1 -22337671 -22337677#1 -22337679 -22337694#1 -22337694#2 -22337694#3 -22337694#4 -22337694#5 -22337694#6 -22337699 -22338210#0 -22338210#1 -22338210#2 -22338210#3 -22338210#4 -22338210#5 -22338210#6 -22338210#7 -22338210#8 -22338211#0 -22338211#1 -22338211#2 -22338211#3 -22338211#4 -22338211#5 -22338211#6 -22338211#7 -22338211#8 -22338211#9 -22338212#1 -22338212#2 -22338212#3 -22338216 -22338219 -22338220 -22338223#0 -22338223#1 -22338223#2 -22338225#0 -22338225#1 -22338225#2 -22338246#0 -22338246#1 -22338246#2 -22338246#3 -22338472 -22338474 -22341882 -223571017 -231514327#0 -231514327#1 -231514327#10 -231514327#2 -231514327#3 -231514327#4 -231514327#5 -231514327#6 -231514327#8 -231514327#9 -2521535 -255539828 -25921293#1 -25921301#0 -25921301#1 -25921301#3 -25976769#0 -25976769#1 -25976769#2 -25976769#3 -25976769#4 -25976769#5 -25976819#0 -25976820 -25976821#0 -25976821#1 -25976821#2 -25976821#3 -25976822 -26006532 -26006619 -26006688#0 -26006688#1 -26006688#2 -26006688#3 -26006688#4 -26006688#5 -26006688#6 -26006688#7 -26006852#0 -26006852#1 -26006852#2 -26007022#0 -26007022#1 -26007022#2 -26007022#3 -26007022#4 -26007022#5 -26007134#0 -26007134#1 -26007134#2 -26007134#3 -262266426 -262266427#0 -262266427#1 -262266428 -262856571#0 -262856571#1 -262856571#2 -263015084 -263015086#0 -263015086#1 -263015086#2 -263060155#0 -263060155#1 -263060155#2 -263060155#3 -263060155#4 -263060155#5 -263060155#6 -263060155#7 -263060155#8 -263060155#9 -268268082#0 -268268082#1 -268268082#3 -268268082#4 -268268082#5 -268268082#6 -268268088#0 -268268088#2 -268268088#5 -268268090#0 -268268090#2 -268268106#0 -268268113 -268268114 -268268115 -268268129#0 -268268129#1 -268268134#0 -268268134#1 -268268135 -268268138 -27444355 -27444376#0 -27444379 -27444382#0 -27444382#2 -27549653 -300066262 -301729812#0 -301729812#1 -301729812#2 -307570927#0 -307570927#1 -307570927#2 -307570927#3 -307570933 -319103476#0 -319103476#1 -34335059 -34335064 -34340972#0 -34340972#1 -34340973#0 -34340973#1 -34340973#2 -34340973#3 -34340974#0 -34340975#0 -34340975#1 -34340975#2 -34340975#3 -34340975#4 -34340976#0 -34340976#1 -34340976#11 -34340976#12 -34340976#13 -34340976#14 -34340976#2 -34340976#3 -34340976#4 -34340976#5 -34340976#6 -34340976#7 -34340976#9 -34416116 -345235527#1 -345235527#2 -345235539 -345235540 -345311195#0 -345311195#1 -345311195#2 -345311195#3 -345311199 -345311200#0 -345311200#1 -345311200#2 -345311203 -345311204 -345311206#0 -345319052 -345319054 -345319057 -345319058 -345319060 -345319062 -345319063#0 -345319063#1 -345319063#2 -345319063#3 -35031782 -362805820 -369182823#0 -369182823#1 -369182823#2 -369182823#3 -377180454#0 -377180454#1 -377325783#0 -377325783#1 -377325784#0 -377325784#1 -377325825#0 -377325825#1 -377329808#1 -384683195 -403212739 -41213181#0 -41213181#1 -41213181#2 -41213181#3 -41213181#4 -41213181#5 -441725570 -441726023 -445045169#0 -445045169#2 -445045169#3 -445045169#4 -445045169#5 -47073797#0 -472091967 -472091968#1 -472091968#2 -472091968#3 -472091970 -472091974 -480897700 -486563014 -486563018 -486790669#1 -486790669#2 -486816946 -486816948#0 -486816954#0 -486816955 -486816966 -486816967#0 -486816967#1 -486816969 -486816970 -486816972 -486816973 -486816975 -486816984 -486816988 -51413968 -52395024#0 -52395024#1 -533349967#0 -533349980 -534107497 -58448051 -60442476 -61816454 -61839902#0 -61839902#1 -61839910 -61841069 -61968766 -62143074 -62143075#0 -62143075#1 -63067505 -685050840 -685050841#0 -685050841#1 -685050846 -685050847 -685050848#0 -685050848#1 -685050849#0 -685050849#1 -685050849#2 -685050849#3 -685050850 -685050851 -685050852#0 -685050852#3 -685050853#0 -685050853#1 -685050853#2 -685050853#3 -8009283 -8009313#1 -8009313#2 -8009313#3 -81113692#1 -81113692#2 -81113692#3 -81113692#4 -81113692#5 -81113692#6 -81113692#7 -81113693#0 -81113693#1 -81113695#0 -81113695#1 -81113695#2 -81113697 -81113698#0 -81113698#1 -81113699#0 -81113699#1 -81113700 -8227799#0 -8227799#1 -8227799#2 -8274069#0 -8274069#2 -8274069#3 101975654 101975677 102861994#1 102861999#2 102866162 103893727#1 103893733#0 103893733#1 103893743#0 103893743#1 103893743#2 104797466#1 104797466#2 104797466#3 104797468#1 104797468#2 104797468#3 104797468#4 104797468#5 104797468#6 104797468#7 104797468#8 108283871 108283873 108283877#0 108283877#1 108283877#2 108283877#3 108283877#4 108283877#5 108283877#6 108283877#7 108283877#8 108283877#9 108283880#0 108283880#1 108283881 108283882 108283884 10864326#0 10864326#1 10864326#2 10864389#0 10864389#1 10961653#0 10961653#1 10961699 10962242#0 10962242#1 10962377 10962566#0 10962566#1 10962566#2 10962566#3 10962620#0 10962620#1 10962620#2 10962814#0 10962814#1 10963550#0 10963550#1 10963550#2 10964113#0 10964113#1 10964113#2 10964283 10964360#0 10964360#1 10965170#0 10965170#1 10965170#2 10965170#3 10965170#4 10965170#5 10965170#6 10965854#0 10965854#1 10965854#10 10965854#11 10965854#2 10965854#3 10965854#4 10965854#5 10965854#6 10965854#7 10965854#8 10965854#9 10966038#3 10966038#4 10966038#5 10966038#6 10966620#0 10966620#1 10966620#2 11006114#0 11006114#1 11006114#2 11006444#0 11006444#1 11006444#2 11006622 11007183 11007418 11007576#0 11007576#1 11007659#0 11007659#1 11008274 111542474#0 111542474#1 111542475 111706118 120016128 120016129#0 120016129#1 120016129#2 120016129#3 120016132 120016553 121230336 121230337#0 121230337#1 125419197#0 125419197#1 125419200 125419202 132908614#0 132908614#1 132908614#10 132908614#13 132908614#14 132908614#15 132908614#3 132908614#4 132908614#5 132908614#6 132908614#7 132908614#8 132908614#9 132908622 135087238 135266443#0 135266443#1 135266443#2 135266443#3 135270687#0 135270687#1 135270896#0 135270896#1 135270896#2 135270896#3 135270897 135270898 135270899 135270900#0 135270900#1 135270900#2 135271128#0 135271128#1 135273574#0 135273574#1 135273575 135991700 144959665 153431406#0 153431406#1 153431406#2 157147523#0 157147523#1 157147523#2 157147524#0 157147524#11 157147524#12 157147524#13 157147524#2 157147524#4 157147524#5 157147524#7 157147524#8 157147524#9 157148575#0 157148575#1 157148575#2 157148579#0 157148579#1 157148579#2 157148579#3 157148579#4 157148579#6 157148586#0 157148586#1 157148586#2 157148586#3 157148586#4 157149624#2 157149626#0 157149992#0 157149992#1 157149992#2 157149992#3 157149992#4 157149992#5 157149992#6 157149992#7 157149992#8 157149992#9 157149994#0 157149994#1 157149994#2 157150384#0 157150384#1 157150385 15777958#0 15777958#1 159190393 170948390#0 170948390#1 170948390#2 170948390#3 17148964#0 17148964#1 17148964#2 17148964#3 17148964#4 17148964#5 17148964#6 17148964#7 17148964#8 171610162#3 172675262#0 172675262#1 172675294 172675295#1 173168679#0 173168679#1 173168683 19190947#0 19190947#1 19190947#2 19190948 19190950#0 19190950#1 19190952#0 19190952#1 19190953#0 19190953#1 19190958 19190963 19190965#0 19190965#1 19190965#2 19195755#0 19195755#1 192475137#0 192475137#1 192475139 192475140#0 192475140#1 192836865 192964801 192964802#0 192964802#1 192964803 192964804#0 192964804#1 192964805#0 192964805#1 194571776#0 194571776#1 194571776#2 194571776#3 194571776#4 194571776#5 194571777#0 194571777#1 194571777#2 194571777#3 194571777#4 194571777#5 194571777#6 194571799 194571800 194571801 194571803 194571805 194571806#0 194571806#1 194571807#0 194571807#1 194571808#0 194571808#1 194571808#2 194571808#3 194712907 194712908 194712909 194831717 194831718 194831719 194831720 194831721 194831722 195002593 195002595 195035392 195153741#0 195153741#1 195153741#2 195153741#3 195232380 195383022 195383026#1 196193009 196670069 196911942#0 196911942#1 196911942#2 196911942#3 198268791 198268792 198268793 198268794 198268795 198268796#0 198268796#1 198268796#2 198268796#3 198268796#4 206030309#1 206030314#0 206030314#1 220788466#0 220788466#1 221093005 22323597#1 22323597#2 22323597#3 22323598#0 22323598#1 22323598#3 22323598#4 22323598#5 22323598#6 22323598#7 22323598#8 22323598#9 22323599#0 22323599#1 22323599#3 22323599#4 22324582#0 22324582#1 22324585 22324588#0 22324588#1 22324588#2 22324589 22325081 22325216 22325217 22325218#1 22325218#2 22327897#0 22327897#1 22327898 22327899 22327900#1 22327901#0 22327901#2 22327902#0 22327902#1 22327902#2 22327902#3 22327902#4 22327904 22327906 22327999#0 22327999#1 22327999#2 22328002 22328003#1 22328003#2 22328003#3 22328003#4 22328004#0 22328004#1 22328005#0 22328005#1 22328005#2 22328005#3 22328005#4 22328006 22328008 22328010#0 22328010#1 22328011 22328198#0 22328198#1 22328199 22328200#0 22328200#1 22328200#2 22328200#3 22328200#4 22328200#5 22328200#6 22328200#8 22328201#0 22328201#1 22328201#2 22328201#3 22328201#4 22328201#5 22328202 22328203 22328204#0 22328204#1 22328204#2 22328204#3 22328205#0 22328205#1 22328205#2 22328205#3 22328205#4 22328205#5 22328205#6 22328205#7 22328205#8 22328206#0 22328206#1 22328206#2 22328206#3 22328206#4 22328206#5 22328207#0 22328207#1 22328208 22328209 22328210 22328211#0 22328211#1 22328211#2 22328213 22328380#1 22328380#2 22328380#3 22328381 22328382 22328383 22328384#0 22328384#1 22328384#2 22328520#0 22328520#1 22328520#10 22328520#11 22328520#2 22328520#3 22328520#4 22328520#5 22328520#6 22328520#7 22328520#8 22328520#9 22328521 22328522#1 22328522#10 22328522#11 22328522#12 22328522#13 22328522#3 22328522#4 22328522#5 22328522#7 22328522#8 22328522#9 22328523#0 22328523#1 22328524 22328525 22328526 22328527 22328528 22328529 22328530 22328531 22328532 22328533 22328534 22328536#0 22328536#1 22328537#0 22328537#1 22328537#2 22328537#3 22328537#4 22328846#0 22328846#1 22328847#0 22328847#1 22328847#2 22328848#0 22328848#1 22328848#2 22328848#3 22328848#4 22328848#5 22328848#6 22328849#0 22328849#1 22328849#2 22328849#3 22328849#4 22328852#0 22328852#1 22328852#2 22328852#3 22328853#0 22328853#1 22328854 22328855 22328909 22328910#0 22328910#1 22328910#2 22328910#3 22328910#4 22328910#5 22328910#6 22328910#7 22328911 22328912 22328913#0 22328913#1 22328913#2 22328913#3 22328913#4 22328914#0 22328914#1 22328914#2 22328914#3 22328914#4 22328914#5 22328915 22330942 22330943 22330944#0 22330944#1 22330944#2 22330944#3 22330944#4 22330945#0 22330945#1 22330947 22331046 22331047#0 22331047#1 22331048#0 22331048#1 22331049#0 22331049#1 22331050#0 22331050#1 22331051 22331052 22331053 22331056#1 22331056#10 22331056#11 22331056#2 22331056#3 22331056#5 22331056#6 22331056#7 22331056#8 22331056#9 22334431#0 22334431#1 22334434#0 22334434#1 22334436#0 22334436#1 22334436#2 22334438 22334440#0 22334440#1 22334440#2 22334443#0 22334443#1 22334443#2 22334445#1 22334445#2 22334450#0 22334450#1 22334453 22334455#0 22334455#1 22334455#2 22334455#3 22334455#4 22334457#1 22334457#2 22334457#3 22334457#4 22334457#6 22334462#0 22334462#1 22334464 22334466#0 22334466#1 22334466#2 22334470#0 22334470#1 22334471 22334474#0 22334474#1 22337654#0 22337654#1 22337654#2 22337655 22337656#1 22337656#10 22337656#3 22337656#4 22337656#5 22337656#6 22337656#7 22337656#8 22337656#9 22337658#1 22337659#0 22337659#1 22337660#0 22337660#1 22337660#2 22337661#0 22337661#1 22337662#0 22337662#1 22337662#2 22337663#0 22337663#1 22337663#2 22337664#0 22337664#1 22337665#0 22337665#1 22337667#0 22337667#1 22337668#0 22337668#1 22337668#2 22337669#0 22337669#1 22337669#2 22337669#3 22337669#4 22337670#0 22337670#1 22337670#2 22337671 22337672#0 22337672#1 22337673#1 22337674#0 22337674#1 22337674#2 22337674#3 22337675#0 22337675#1 22337675#2 22337675#3 22337677#1 22337678 22337680#0 22337680#1 22337680#2 22337681#0 22337681#1 22337681#2 22337681#3 22337681#4 22337683#0 22337683#1 22337683#2 22337683#3 22337686#0 22337686#1 22337686#2 22337686#3 22337686#4 22337686#5 22337686#6 22337690#0 22337690#1 22337692#0 22337692#1 22337694#1 22337694#2 22337694#3 22337694#4 22337694#5 22337694#6 22337697#0 22337697#1 22337698#0 22337698#1 22337698#2 22337699 22338210#0 22338210#1 22338210#2 22338210#3 22338210#4 22338210#5 22338210#6 22338210#7 22338210#8 22338211#0 22338211#1 22338211#2 22338211#3 22338211#4 22338211#5 22338211#6 22338211#7 22338211#8 22338211#9 22338212#1 22338212#2 22338212#3 22338213#0 22338213#1 22338213#2 22338213#3 22338213#4 22338214#0 22338214#1 22338214#2 22338214#3 22338214#4 22338214#5 22338215 22338216 22338217 22338218 22338219 22338220 22338221 22338222#0 22338222#1 22338222#2 22338222#3 22338222#4 22338223#0 22338223#1 22338223#2 22338224#0 22338224#1 22338224#2 22338225#0 22338225#1 22338225#2 22338226 22338227#0 22338227#1 22338227#2 22338228#0 22338228#1 22338228#2 22338228#3 22338228#4 22338228#5 22338229#0 22338229#1 22338230 22338231 22338232#0 22338232#1 22338232#2 22338233 22338234#0 22338234#1 22338234#2 22338234#3 22338234#4 22338234#5 22338235#0 22338235#1 22338237 22338238#0 22338238#1 22338239#0 22338239#1 22338239#2 22338240 22338241#0 22338241#1 22338241#2 22338241#3 22338241#4 22338242 22338243#0 22338243#1 22338243#2 22338244 22338245#0 22338245#1 22338246#0 22338246#1 22338246#2 22338246#3 22338247#0 22338247#1 22338248 22338249#0 22338249#1 22338249#2 22338249#3 22338250 22338251 22338252#0 22338252#1 22338252#2 22338329#0 22338329#1 22338472 22338473 22338474 22341882 223571017 22745346#0 22745346#1 22745347 22745348 22745349#0 22745349#1 22745349#2 22745349#3 22745350 231514322 231514325 231514327#0 231514327#1 231514327#10 231514327#2 231514327#3 231514327#4 231514327#5 231514327#6 231514327#8 231514327#9 231514328 241129765#0 241129765#1 241129766 241129767 241129769 241129770 2521535 255539828 25921293#1 25921294 25921301#