<?xml version="1.0" encoding="UTF-8"?>

<!-- generated on Mon Jul  1 21:17:32 2019 by Eclipse SUMO polyconvert Version 1.2.0
<configuration xmlns:xsi="http://www.w3.org/2001/XMLSchema-instance" xsi:noNamespaceSchemaLocation="http://sumo.dlr.de/xsd/polyconvertConfiguration.xsd">

    <input>
        <net-file value="kirchheim.net.xml"/>
        <osm-files value="kirchheim.osm.xml"/>
        <type-file value="/usr/local/Cellar/sumo/1.2.0/share/sumo/data/typemap/osmPolyconvert.typ.xml"/>
    </input>

    <output>
        <output-file value="kirchheim.poly.xml"/>
    </output>

    <processing>
        <poi-layer-offset value="5"/>
    </processing>

</configuration>
-->

<additional xmlns:xsi="http://www.w3.org/2001/XMLSchema-instance" xsi:noNamespaceSchemaLocation="http://sumo.dlr.de/xsd/additional_file.xsd">
    <location netOffset="-702380.07,-5335867.88" convBoundary="-1189.59,-3512.79,24715.92,22494.97" origBoundary="11.705088,48.106229,12.050788,48.345716" projParameter="+proj=utm +zone=32 +ellps=WGS84 +datum=WGS84 +units=m +no_defs"/>

    <poly id="101975651" type="building" color="255,230,230" fill="1" layer="-1.00" shape="2123.849907,1981.999160 2128.803695,1979.005047 2122.813583,1969.142926 2117.860188,1972.125930 2123.849907,1981.999160"/>
    <poly id="101975655" type="building" color="255,230,230" fill="1" layer="-1.00" shape="2169.680547,2121.345318 2176.120281,2126.127098 2191.619573,2105.350099 2185.179827,2100.568303 2169.680547,2121.345318"/>
    <poly id="101975668" type="building" color="255,230,230" fill="1" layer="-1.00" shape="2123.232582,1918.949602 2133.931754,1920.801371 2135.928371,1909.322244 2125.229178,1907.470472 2123.232582,1918.949602"/>
    <poly id="101975670" type="building" color="255,230,230" fill="1" layer="-1.00" shape="2163.725655,1939.338304 2171.885918,1936.826216 2168.568827,1926.125001 2160.408552,1928.637093 2163.725655,1939.338304"/>
    <poly id="101975678" type="building" color="255,230,230" fill="1" layer="-1.00" shape="2128.366664,1952.316234 2139.572840,1948.945001 2135.737112,1936.300148 2124.538350,1939.671655 2128.366664,1952.316234"/>
    <poly id="101975684" type="building" color="255,230,230" fill="1" layer="-1.00" shape="2104.311640,1986.863813 2110.388742,1984.933634 2106.531109,1972.900043 2100.453598,1974.841340 2104.311640,1986.863813"/>
    <poly id="101975686" type="building" color="255,230,230" fill="1" layer="-1.00" shape="2155.529686,2003.374371 2164.744464,1997.606215 2156.769594,1984.957839 2147.554805,1990.726008 2155.529686,2003.374371"/>
    <poly id="103436212" type="amenity" color="237,199,199" fill="1" layer="-1.00" shape="1210.535174,1643.365608 1211.819602,1631.972183 1194.319017,1630.002310 1193.620639,1636.231148 1185.864176,1635.353962 1185.277377,1640.540780 1210.535174,1643.365608"/>
    <poly id="103436212#1" type="building" color="255,230,230" fill="1" layer="-1.00" shape="1210.535174,1643.365608 1211.819602,1631.972183 1194.319017,1630.002310 1193.620639,1636.231148 1185.864176,1635.353962 1185.277377,1640.540780 1210.535174,1643.365608"/>
    <poly id="103893734" type="amenity" color="237,199,199" fill="1" layer="-1.00" shape="2599.045700,2311.950202 2603.824272,2311.765548 2607.104686,2308.311214 2607.029982,2303.545836 2603.636298,2300.197021 2603.511498,2300.148033 2598.820283,2300.180033 2595.571486,2303.168138 2595.470787,2308.672786 2599.045700,2311.950202"/>
    <poly id="103893734#1" type="building" color="255,230,230" fill="1" layer="-1.00" shape="2599.045700,2311.950202 2603.824272,2311.765548 2607.104686,2308.311214 2607.029982,2303.545836 2603.636298,2300.197021 2603.511498,2300.148033 2598.820283,2300.180033 2595.571486,2303.168138 2595.470787,2308.672786 2599.045700,2311.950202"/>
    <poly id="103893734#2" type="shop" color="237,199,255" fill="1" layer="-1.00" shape="2599.045700,2311.950202 2603.824272,2311.765548 2607.104686,2308.311214 2607.029982,2303.545836 2603.636298,2300.197021 2603.511498,2300.148033 2598.820283,2300.180033 2595.571486,2303.168138 2595.470787,2308.672786 2599.045700,2311.950202"/>
    <poly id="103893741" type="parking" color="184,184,179" fill="1" layer="-1.00" shape="2630.548063,2309.541806 2681.965762,2309.383942 2681.915357,2292.534631 2630.490072,2292.692234 2630.548063,2309.541806"/>
    <poly id="104797468" type="landuse" color="194,194,130" fill="1" layer="-3.00" shape="2610.445523,2199.834892 2614.764666,2199.800675 2624.252109,2190.381983 2627.779827,2193.524186 2630.974138,2193.716690 2634.898178,2189.962755 2644.125180,2199.630054 2647.234642,2196.792761 2650.104589,2193.991386 2648.248989,2190.931424 2647.119778,2187.752865 2647.631454,2185.111681 2649.458209,2182.751369 2651.844543,2181.601811 2656.953367,2182.797764 2659.034042,2185.187010 2662.184287,2185.155394 2664.917308,2180.568664 2664.758193,2164.049294 2661.445072,2163.017924 2647.208205,2152.714593 2645.062643,2155.452940 2639.901928,2156.324909 2633.165858,2151.097964 2633.313326,2145.327927 2651.840173,2121.556040 2662.244770,2107.952873 2664.430723,2105.126958 2661.709250,2102.959529 2657.242937,2099.416411 2654.649476,2103.017780 2630.907172,2133.334852 2622.416926,2134.254296 2607.888910,2123.139426 2605.891663,2125.894235 2603.184186,2129.769729 2607.490118,2133.218029 2607.932107,2156.591128 2603.154203,2156.753556 2603.278396,2163.045216 2606.811983,2166.232126 2606.901549,2171.621192 2598.804479,2181.089790 2595.274762,2181.530685 2595.117905,2183.205355 2595.005141,2184.481006 2594.847487,2186.177903 2599.574754,2186.803727 2600.039851,2210.155399 2594.732366,2210.554772 2595.682023,2211.890791 2595.637986,2214.571010 2592.595796,2215.741573 2592.173644,2222.113783 2592.761016,2222.134854 2592.276198,2240.422685 2589.621085,2240.349694 2589.452302,2249.412792 2589.347031,2252.969910 2590.583340,2253.993507 2591.591394,2255.776733 2591.956186,2257.436733 2592.085589,2258.810094 2588.255609,2258.906384 2588.488690,2272.746595 2592.603575,2276.744428 2602.351877,2286.196683 2580.619025,2308.462709 2586.730969,2308.670833 2595.505171,2308.751914 2595.571486,2303.168138 2598.774876,2300.200660 2603.511498,2300.148033 2603.636298,2300.197021 2605.584214,2297.985707 2608.121911,2295.105628 2607.145441,2294.102477 2606.926255,2286.516583 2608.890641,2284.261348 2609.938624,2283.063761 2609.763945,2260.334530 2609.742788,2258.019189 2602.601424,2258.074564 2602.509643,2236.561240 2603.790468,2236.551551 2604.468601,2234.250169 2606.405396,2231.726876 2609.492591,2230.546808 2616.135183,2230.284372 2615.568324,2210.601216 2610.043248,2210.425250 2608.222350,2209.302783 2606.873075,2207.485058 2606.099491,2205.598963 2606.552345,2202.521682 2608.118170,2200.585981 2610.445523,2199.834892"/>
    <poly id="105342837" type="amenity" color="237,199,199" fill="1" layer="-1.00" shape="791.114408,506.415393 791.457513,505.771062 794.753198,506.489075 797.214078,505.552801 798.985279,503.278967 799.554940,500.450565 798.908051,497.489905 796.890788,495.582169 797.233499,494.948951 784.004279,487.935814 782.280530,491.179434 780.606621,490.296510 778.157902,494.871927 779.831415,495.765963 777.892647,499.402533 791.114408,506.415393"/>
    <poly id="105342837#1" type="building" color="255,230,230" fill="1" layer="-1.00" shape="791.114408,506.415393 791.457513,505.771062 794.753198,506.489075 797.214078,505.552801 798.985279,503.278967 799.554940,500.450565 798.908051,497.489905 796.890788,495.582169 797.233499,494.948951 784.004279,487.935814 782.280530,491.179434 780.606621,490.296510 778.157902,494.871927 779.831415,495.765963 777.892647,499.402533 791.114408,506.415393"/>
    <poly id="106553619" type="building" color="255,230,230" fill="1" layer="-1.00" shape="998.705308,2464.717483 996.288615,2453.559493 1031.209824,2446.011868 1033.633890,2457.170139 998.705308,2464.717483"/>
    <poly id="106553624" type="building" color="255,230,230" fill="1" layer="-1.00" shape="1035.229488,2416.744718 1034.122595,2411.453080 1032.843844,2405.343009 1060.037831,2399.690320 1062.423425,2411.092042 1035.229488,2416.744718"/>
    <poly id="107076311" type="landuse" color="194,194,130" fill="1" layer="-3.00" shape="884.955094,3284.879381 1039.779007,3069.997427 912.023416,3007.407757 771.549793,3258.389337 868.606747,3276.608451 884.955094,3284.879381"/>
    <poly id="107103762" type="pipeline" color="255,230,230" fill="0" layer="-1.00" shape="24715.919056,-3258.067799 24292.649839,-3042.850974 24245.421736,-3008.858554 23664.225069,-2991.259475 22329.310059,-2394.783945 22174.642393,-2367.720480 21649.191537,-2487.930562 21314.068327,-2499.214641 21159.414805,-2447.770731 20940.277364,-2225.722257 20530.958661,-1903.039464 20186.413636,-1633.383071 20098.375705,-1565.942639 19889.153107,-1525.993622 19879.858171,-1524.395868 19644.430650,-1479.624079 19410.696268,-1433.619737 19389.717101,-1429.513636 19077.438342,-1367.853316 18750.818043,-1301.410819 18428.093087,-1237.960751 18088.380219,-1171.975822 17626.769801,-1084.450662 16720.284177,-902.774407 16460.963042,-850.310011 16236.932026,-798.210507 16206.747873,-799.898369 16045.029894,-768.303147 15808.304276,-722.047695 15435.596766,-649.210991 15169.244858,-596.033821 14729.565672,-509.573184 14428.649609,-449.939752 14126.489274,-389.503374 13621.365846,-289.734035 13061.866160,-179.171859 12327.082431,-31.303787 12158.470195,2.042275 12131.825130,7.619838 11778.255734,76.587015 11323.104805,164.736704 10870.906770,254.267016 10627.862844,299.615777 10613.646862,300.544036 9988.315549,-99.790810 9898.649379,-77.936064 9710.040545,-16.003997 9344.407706,356.964569 8736.007852,272.480677 8329.375694,186.870118 7925.140505,122.710557 7686.719702,505.643434 7397.081937,434.692540 7157.111734,383.727166 6783.403359,303.573671 6314.333935,201.780142 5977.388902,129.276754 5716.135883,372.349028 5594.909212,390.283170 5557.805228,514.392085 5542.535182,529.427209 5531.243288,533.779377 5499.934260,528.478905 5277.863184,441.821620 4966.945854,323.139978 4953.267403,318.348495 4732.682908,291.402400 4454.219508,378.190874 4409.819671,405.962637 4366.647555,459.929866 4312.020876,426.195411 4020.376573,514.619656 2764.205589,630.447019 2615.116928,905.106866 2535.535040,833.517275 2454.008512,762.526909 1978.820201,475.617579 1873.810032,596.572615 1746.362335,716.850474 1661.471792,796.976718 1558.340615,866.449531 1504.338938,914.920203 1422.414223,976.783698"/>
    <poly id="11981371" type="residential" color="235,235,227" fill="1" layer="-3.00" shape="515.326540,640.755375 511.563692,648.166271 510.619066,650.024420 490.249060,690.005888 535.140492,713.787433 523.717568,745.262272 521.233694,752.095416 595.263174,780.450346 650.656435,701.186601 714.536961,758.459145 673.175520,809.111117 819.149166,870.347647 868.476592,805.525214 828.934246,774.809442 869.464128,724.974621 910.687503,754.281605 954.328984,788.237227 1058.790064,879.338758 1059.703279,878.158353 1071.369886,863.139632 1149.154146,762.933985 1156.536907,753.426830 1177.853352,729.449228 1280.883104,602.959437 1285.525528,600.988329 1289.982496,601.714624 1312.134479,620.986823 1408.245540,496.533684 1416.778500,504.081936 1456.126044,497.216924 1451.339728,465.833311 1498.754881,458.065562 1487.817728,389.507745 1717.990040,349.148009 1715.358517,323.148911 1711.201932,282.084186 1640.255684,290.590658 1645.359105,220.201323 1611.596184,223.058178 1588.232067,228.556234 1581.365366,234.832057 1567.938643,238.370160 1556.552147,238.576016 1542.193089,242.781962 1532.353137,250.364999 1521.103311,260.312464 1507.805627,264.411685 1494.853935,221.008359 1482.394269,169.020978 1520.853091,144.542940 1505.145731,117.009465 1452.502968,151.219333 1420.819323,126.032005 1276.943598,5.478990 1254.373814,-13.429431 1254.500103,-19.066616 1222.904808,-21.059714 1205.868010,-6.288036 1193.107021,1.135936 1176.507541,15.133205 1124.003580,-11.850643 1067.606627,-22.158759 1028.254230,-37.635183 1012.899398,-44.590867 1001.623208,-52.313892 982.087253,-51.016910 973.344399,-41.813802 932.421714,1.942137 922.577371,-6.464236 886.773799,-33.786715 876.438638,-38.026497 868.797168,-39.689070 806.961627,-47.439395 721.585491,38.091242 676.599690,-1.206540 628.168180,53.590293 614.238606,56.200309 593.932317,34.949178 542.498496,4.614920 528.552017,23.648724 431.373252,-21.705167 412.666432,10.190322 382.713240,-0.508344 376.457987,10.820151 291.975401,-25.702085 258.210836,43.604770 149.248780,-35.165809 134.099645,-13.258334 128.535065,-6.066799 106.396469,-19.792055 108.307469,-8.563560 105.105563,4.253131 40.979454,80.353060 34.834218,87.123530 -9.604394,135.568265 -3.071389,140.562041 -68.588428,213.119784 -119.749262,267.024635 -128.733376,276.799376 -150.646939,304.310095 -106.763282,339.467319 -132.797028,369.146695 -130.151573,373.724630 -240.528099,489.607479 -283.764003,537.462295 -55.324108,594.569976 170.362843,655.083534 238.939259,671.812544 287.868356,681.080307 348.587730,698.667124 384.107822,712.912684 383.392973,719.630586 385.493815,724.011441 390.613712,728.299091 411.902777,740.471089 427.798999,748.701875 440.371320,755.123396 441.698079,755.715717 442.995918,753.135676 444.589427,749.987497 445.077779,749.025605 445.534018,748.129338 501.596601,637.152386 502.929307,634.640359 515.326540,640.755375"/>
    <poly id="11981374" type="industrial" color="209,209,204" fill="1" layer="-3.00" shape="986.206346,939.148238 974.889270,960.678044 991.906210,969.184039 1076.001039,1011.891012 1107.049079,1025.748442 1160.754936,1049.648739 1181.472925,1058.965910 1195.220313,1063.505962 1208.137105,1067.115128 1227.790222,1069.951667 1227.225402,1076.819532 1234.967015,1078.553020 1233.515036,1085.033199 1266.019817,1094.347734 1290.074876,1096.306463 1310.390079,1092.679490 1326.224006,1087.557564 1343.533232,1079.483806 1368.745857,1057.326064 1420.294179,1005.962627 1441.386323,983.691640 1479.102358,956.716825 1513.858098,981.847494 1526.582218,982.301385 1577.798576,1016.888422 1545.644025,1058.070706 1537.328305,1069.090841 1512.622914,1056.136029 1479.549191,1043.149930 1399.407954,1150.489071 1507.347591,1200.473586 1582.601204,1099.315333 1614.738766,1120.992729 1541.721404,1215.809718 2066.407839,1434.173626 2083.845662,1420.431564 2018.394856,1376.817768 1991.432216,1355.423101 1902.260841,1295.061117 1873.515594,1274.771754 1870.033413,1264.910590 1870.532975,1254.056695 1949.278781,1142.033514 2013.398111,1050.564060 1999.640144,1039.667715 1845.769418,931.214720 1781.766548,883.961489 1754.945032,864.153329 1706.707883,829.949295 1661.411103,797.842508 1654.604472,792.436326 1806.128062,643.461466 1887.858289,564.370339 1889.226621,550.042281 1884.836385,542.029279 1868.702479,501.504504 1854.146581,450.153310 1857.745394,446.554108 1833.872009,422.544627 1845.020610,405.016204 1838.415206,397.302462 1831.116206,353.131997 1820.247800,346.968545 1806.275875,344.088209 1726.507682,357.330461 1717.990040,349.148009 1487.817728,389.507745 1498.754881,458.065562 1451.339728,465.833311 1456.126044,497.216924 1416.778500,504.081936 1408.245540,496.533684 1312.134479,620.986823 1289.982496,601.714624 1285.525528,600.988329 1280.883104,602.959437 1177.853352,729.449228 1156.536907,753.426830 1149.154146,762.933985 1071.369886,863.139632 1059.703279,878.158353 1058.790064,879.338758 954.328984,788.237227 910.687503,754.281605 869.464128,724.974621 828.934246,774.809442 868.476592,805.525214 819.149166,870.347647 986.206346,939.148238"/>
    <poly id="11981379" type="amenity" color="237,199,199" fill="1" layer="-1.00" shape="713.629835,492.645956 731.313349,468.815893 722.369792,462.110955 718.154928,467.981208 714.710382,464.954556 716.558430,462.193817 718.430765,459.378304 716.695429,458.337434 706.050935,451.928178 713.622075,439.411612 707.001880,434.591898 689.931319,457.308800 693.268001,459.808611 692.104576,461.325138 688.005377,466.665398 684.365678,464.310612 682.068000,467.990101 679.517332,472.083450 682.497809,474.548349 683.819117,472.570073 688.547765,476.343351 692.466285,470.429170 710.788266,483.965690 707.868813,488.168329 713.629835,492.645956"/>
    <poly id="11981379#1" type="building" color="255,230,230" fill="1" layer="-1.00" shape="713.629835,492.645956 731.313349,468.815893 722.369792,462.110955 718.154928,467.981208 714.710382,464.954556 716.558430,462.193817 718.430765,459.378304 716.695429,458.337434 706.050935,451.928178 713.622075,439.411612 707.001880,434.591898 689.931319,457.308800 693.268001,459.808611 692.104576,461.325138 688.005377,466.665398 684.365678,464.310612 682.068000,467.990101 679.517332,472.083450 682.497809,474.548349 683.819117,472.570073 688.547765,476.343351 692.466285,470.429170 710.788266,483.965690 707.868813,488.168329 713.629835,492.645956"/>
    <poly id="11981380" type="tourism" color="207,245,201" fill="1" layer="-2.00" shape="788.103038,466.894654 838.758042,501.387760 860.242543,453.813475 836.312340,453.085200 814.113260,451.839922 786.400428,449.007842 784.488437,450.842702 783.834659,456.038281 784.562836,461.950622 788.103038,466.894654"/>
    <poly id="11981382" type="tourism" color="207,245,201" fill="1" layer="-2.00" shape="912.164012,550.688798 912.288930,545.919522 922.326898,528.750594 978.177348,566.411973 964.939778,583.300086 961.672421,583.462056 912.164012,550.688798"/>
    <poly id="11981388" type="parking" color="184,184,179" fill="1" layer="-1.00" shape="904.030849,1652.372987 974.828379,1537.673874 1144.596444,1631.558463 1076.386819,1751.077007 904.030849,1652.372987"/>
    <poly id="11981956" type="commercial" color="209,209,204" fill="1" layer="-3.00" shape="3430.192234,4515.924841 3473.810551,4540.431982 3492.768654,4550.229321 3553.893884,4581.833737 3603.103446,4480.207725 3592.125898,4471.565888 3635.006042,4359.151306 3681.689601,4377.716976 3701.390739,4324.457280 3760.072697,4356.787963 3771.435007,4327.976072 3830.561631,4352.311402 3833.913446,4335.951886 3833.862396,4318.200886 3826.504792,4287.422213 3830.976190,4284.367697 3848.769045,4272.658205 3859.954009,4257.839072 3865.875743,4246.980597 3868.330734,4242.473405 3881.456904,4200.494205 3909.252050,4106.598655 3940.537166,4013.152001 3722.184081,3952.053248 3727.089439,3936.773529 3659.686531,3906.532493 3644.168919,3947.580114 3651.267899,3950.295507 3547.043102,4225.591986 3545.311753,4237.280673 3430.192234,4515.924841"/>
    <poly id="120016127" type="building" color="255,230,230" fill="1" layer="-1.00" shape="2421.272637,2181.456111 2428.396247,2192.282831 2438.748889,2185.509890 2431.625288,2174.683158 2421.272637,2181.456111"/>
    <poly id="120016130" type="parking" color="184,184,179" fill="1" layer="-1.00" shape="2553.936475,2284.838301 2569.535262,2284.563222 2569.079320,2258.463320 2553.480462,2258.738402 2553.936475,2284.838301"/>
    <poly id="120016133" type="building" color="255,230,230" fill="1" layer="-1.00" shape="2417.490670,2186.027604 2425.076530,2212.204960 2412.882844,2215.718264 2405.289501,2189.540660 2417.490670,2186.027604"/>
    <poly id="120494735" type="building" color="255,230,230" fill="1" layer="-1.00" shape="758.739740,2159.775398 762.369114,2153.383676 755.586178,2149.014205 781.961105,2110.515824 789.818788,2115.646831 793.417018,2132.744316 787.971191,2141.018758 799.888307,2148.808954 802.264696,2163.837784 790.643110,2180.816930 761.911111,2161.868854 758.739740,2159.775398"/>
    <poly id="120494736" type="parking" color="184,184,179" fill="1" layer="-1.00" shape="652.829392,2146.719576 671.984368,2120.315778 673.953015,2117.080853 654.749786,2104.825817 648.448027,2100.529217 606.553227,2166.451446 703.341251,2220.420928 723.114764,2193.371628 652.829392,2146.719576"/>
    <poly id="121343413" type="building" color="255,230,230" fill="1" layer="-1.00" shape="1279.969571,965.308307 1280.308554,961.436852 1281.960179,957.923737 1284.716443,955.173276 1288.244503,953.540822 1292.128606,953.200730 1295.890032,954.213837 1299.079496,956.441730 1301.311564,959.625868 1302.317108,963.378319 1301.978506,967.238660 1300.326475,970.762883 1297.578042,973.502488 1294.042158,975.145785 1290.165506,975.486140 1286.404093,974.473036 1283.207199,972.244885 1280.975127,969.060755 1279.969571,965.308307"/>
    <poly id="121343413#1" type="man_made" color="255,230,230" fill="1" layer="-1.00" shape="1279.969571,965.308307 1280.308554,961.436852 1281.960179,957.923737 1284.716443,955.173276 1288.244503,953.540822 1292.128606,953.200730 1295.890032,954.213837 1299.079496,956.441730 1301.311564,959.625868 1302.317108,963.378319 1301.978506,967.238660 1300.326475,970.762883 1297.578042,973.502488 1294.042158,975.145785 1290.165506,975.486140 1286.404093,974.473036 1283.207199,972.244885 1280.975127,969.060755 1279.969571,965.308307"/>
    <poly id="121343423" type="building" color="255,230,230" fill="1" layer="-1.00" shape="1338.990505,919.885473 1326.124359,905.862393 1318.759076,912.576932 1307.030261,923.264330 1299.480601,930.139235 1312.346352,944.173369 1319.411262,937.737439 1331.478776,926.739435 1338.990505,919.885473"/>
    <poly id="121343425" type="building" color="255,230,230" fill="1" layer="-1.00" shape="1389.559642,901.235387 1386.811762,895.184157 1386.183627,888.574217 1387.746567,882.120277 1391.326895,876.517185 1396.530194,872.385160 1402.804770,870.160769 1409.464362,870.086613 1415.786403,872.170316 1421.093834,876.187441 1424.798932,881.705309 1426.506242,888.120053 1426.031708,894.746323 1423.431237,900.851690 1418.973627,905.789211 1413.154643,909.020183 1406.597963,910.177379 1400.021866,909.164005 1394.123022,906.071663 1389.559642,901.235387"/>
    <poly id="121343425#1" type="man_made" color="255,230,230" fill="1" layer="-1.00" shape="1389.559642,901.235387 1386.811762,895.184157 1386.183627,888.574217 1387.746567,882.120277 1391.326895,876.517185 1396.530194,872.385160 1402.804770,870.160769 1409.464362,870.086613 1415.786403,872.170316 1421.093834,876.187441 1424.798932,881.705309 1426.506242,888.120053 1426.031708,894.746323 1423.431237,900.851690 1418.973627,905.789211 1413.154643,909.020183 1406.597963,910.177379 1400.021866,909.164005 1394.123022,906.071663 1389.559642,901.235387"/>
    <poly id="121343428" type="building" color="255,230,230" fill="1" layer="-1.00" shape="1498.316203,875.636279 1495.578838,869.919195 1494.857522,863.628614 1496.225157,857.434792 1499.530352,852.033373 1504.417841,847.990323 1510.358232,845.742999 1516.709478,845.546691 1522.785799,847.421451 1527.917176,851.154207 1531.559324,856.347202 1533.308167,862.429637 1532.985513,868.760878 1530.616346,874.640775 1526.462038,879.422124 1520.972162,882.609094 1514.739866,883.855635 1508.440798,883.007806 1502.764193,880.156957 1498.316203,875.636279"/>
    <poly id="121343428#1" type="man_made" color="255,230,230" fill="1" layer="-1.00" shape="1498.316203,875.636279 1495.578838,869.919195 1494.857522,863.628614 1496.225157,857.434792 1499.530352,852.033373 1504.417841,847.990323 1510.358232,845.742999 1516.709478,845.546691 1522.785799,847.421451 1527.917176,851.154207 1531.559324,856.347202 1533.308167,862.429637 1532.985513,868.760878 1530.616346,874.640775 1526.462038,879.422124 1520.972162,882.609094 1514.739866,883.855635 1508.440798,883.007806 1502.764193,880.156957 1498.316203,875.636279"/>
    <poly id="121343430" type="building" color="255,230,230" fill="1" layer="-1.00" shape="1242.989774,1006.553925 1242.668371,1002.825857 1243.646001,999.210830 1245.802719,996.149677 1248.887486,994.000667 1252.510742,993.039239 1256.251679,993.372808 1259.657449,994.962985 1262.310500,997.616853 1263.887269,1001.011309 1264.208658,1004.739378 1263.231015,1008.354402 1261.074292,1011.415548 1257.996965,1013.564817 1254.366283,1014.525976 1250.625361,1014.192408 1247.219600,1012.602236 1244.573987,1009.948640 1242.989774,1006.553925"/>
    <poly id="121343430#1" type="man_made" color="255,230,230" fill="1" layer="-1.00" shape="1242.989774,1006.553925 1242.668371,1002.825857 1243.646001,999.210830 1245.802719,996.149677 1248.887486,994.000667 1252.510742,993.039239 1256.251679,993.372808 1259.657449,994.962985 1262.310500,997.616853 1263.887269,1001.011309 1264.208658,1004.739378 1263.231015,1008.354402 1261.074292,1011.415548 1257.996965,1013.564817 1254.366283,1014.525976 1250.625361,1014.192408 1247.219600,1012.602236 1244.573987,1009.948640 1242.989774,1006.553925"/>
    <poly id="121343433" type="building" color="255,230,230" fill="1" layer="-1.00" shape="1263.182728,985.674628 1262.016036,983.518818 1261.626009,981.090233 1262.039931,978.668035 1263.218555,976.517887 1265.034976,974.857822 1267.296151,973.881260 1269.752711,973.690591 1272.136141,974.298505 1274.195180,975.651540 1275.697001,977.596740 1276.492562,979.928499 1276.479816,982.376118 1275.667477,984.695099 1274.146455,986.632748 1272.081234,987.961245 1269.692230,988.554913 1267.242494,988.345231 1264.984477,987.352321 1263.182728,985.674628"/>
    <poly id="121343433#1" type="man_made" color="255,230,230" fill="1" layer="-1.00" shape="1263.182728,985.674628 1262.016036,983.518818 1261.626009,981.090233 1262.039931,978.668035 1263.218555,976.517887 1265.034976,974.857822 1267.296151,973.881260 1269.752711,973.690591 1272.136141,974.298505 1274.195180,975.651540 1275.697001,977.596740 1276.492562,979.928499 1276.479816,982.376118 1275.667477,984.695099 1274.146455,986.632748 1272.081234,987.961245 1269.692230,988.554913 1267.242494,988.345231 1264.984477,987.352321 1263.182728,985.674628"/>
    <poly id="121343436" type="building" color="255,230,230" fill="1" layer="-1.00" shape="1456.221492,901.976372 1455.314711,895.456632 1456.587298,889.003479 1459.880433,883.312292 1464.859580,878.994290 1470.971853,876.519377 1477.559943,876.153432 1483.914573,877.949057 1489.335583,881.703236 1493.241898,887.005776 1495.207133,893.285085 1495.024931,899.855016 1492.712835,906.015152 1488.518132,911.095531 1482.892767,914.533637 1476.452590,915.973100 1469.895949,915.249657 1463.927347,912.444070 1459.199136,907.846664 1456.221492,901.976372"/>
    <poly id="121343436#1" type="man_made" color="255,230,230" fill="1" layer="-1.00" shape="1456.221492,901.976372 1455.314711,895.456632 1456.587298,889.003479 1459.880433,883.312292 1464.859580,878.994290 1470.971853,876.519377 1477.559943,876.153432 1483.914573,877.949057 1489.335583,881.703236 1493.241898,887.005776 1495.207133,893.285085 1495.024931,899.855016 1492.712835,906.015152 1488.518132,911.095531 1482.892767,914.533637 1476.452590,915.973100 1469.895949,915.249657 1463.927347,912.444070 1459.199136,907.846664 1456.221492,901.976372"/>
    <poly id="121343438" type="building" color="255,230,230" fill="1" layer="-1.00" shape="1540.629425,791.206895 1539.976972,785.909122 1541.182955,780.699901 1544.097956,776.219304 1548.382367,773.011600 1553.501725,771.447194 1558.853145,771.727130 1563.782566,773.816947 1567.703357,777.462036 1570.132310,782.222303 1570.784736,787.520080 1569.578727,792.729296 1566.663712,797.209880 1562.379307,800.417569 1557.259970,801.981968 1551.908579,801.702032 1546.979180,799.612224 1543.058393,795.967150 1540.629425,791.206895"/>
    <poly id="121343438#1" type="man_made" color="255,230,230" fill="1" layer="-1.00" shape="1540.629425,791.206895 1539.976972,785.909122 1541.182955,780.699901 1544.097956,776.219304 1548.382367,773.011600 1553.501725,771.447194 1558.853145,771.727130 1563.782566,773.816947 1567.703357,777.462036 1570.132310,782.222303 1570.784736,787.520080 1569.578727,792.729296 1566.663712,797.209880 1562.379307,800.417569 1557.259970,801.981968 1551.908579,801.702032 1546.979180,799.612224 1543.058393,795.967150 1540.629425,791.206895"/>
    <poly id="121343440" type="building" color="255,230,230" fill="1" layer="-1.00" shape="1214.555928,1055.815566 1208.751709,1052.159273 1204.459361,1046.820930 1202.134638,1040.384273 1202.035593,1033.548402 1204.165855,1027.047866 1208.306747,1021.587045 1213.990306,1017.761292 1220.621037,1015.983378 1227.462229,1016.449615 1233.786276,1019.100704 1238.902841,1023.667243 1242.256724,1029.639837 1243.491228,1036.371502 1242.461053,1043.133768 1239.281575,1049.196322 1234.303762,1053.904014 1228.059740,1056.741680 1221.230669,1057.399758 1214.555928,1055.815566"/>
    <poly id="121343440#1" type="man_made" color="255,230,230" fill="1" layer="-1.00" shape="1214.555928,1055.815566 1208.751709,1052.159273 1204.459361,1046.820930 1202.134638,1040.384273 1202.035593,1033.548402 1204.165855,1027.047866 1208.306747,1021.587045 1213.990306,1017.761292 1220.621037,1015.983378 1227.462229,1016.449615 1233.786276,1019.100704 1238.902841,1023.667243 1242.256724,1029.639837 1243.491228,1036.371502 1242.461053,1043.133768 1239.281575,1049.196322 1234.303762,1053.904014 1228.059740,1056.741680 1221.230669,1057.399758 1214.555928,1055.815566"/>
    <poly id="121344243" type="building" color="255,230,230" fill="1" layer="-1.00" shape="720.632833,775.300254 731.795811,781.349667 735.127404,783.148302 724.812329,802.065805 723.497386,801.351433 713.962912,818.838981 700.791185,811.694502 702.575487,808.419633 720.632833,775.300254"/>
    <poly id="12596694" type="forest" color="140,196,107" fill="1" layer="-3.00" shape="438.299353,3986.963125 824.142527,4249.638020 905.656048,4373.073891 958.567607,4420.258529 1012.953339,4454.654923 1032.308203,4466.160491 934.018897,4696.073108 977.989474,4716.745281 966.539962,4751.356181 993.607841,4762.513256 1003.293833,4762.580108 1008.330251,4762.614867 1007.545719,4754.141030 1009.677584,4742.966919 1018.273691,4708.877582 1050.226645,4643.917740 1153.257179,4711.184347 1192.557425,4673.950228 1263.102066,4763.206295 1393.762107,4864.312135 1288.082394,4832.866496 1269.789450,4862.147415 1178.705570,4829.744529 1152.451004,4860.077238 1050.808205,4821.814073 1011.308870,4798.062410 944.861198,4758.117501 337.809216,4422.132334 108.462990,4310.274626 125.059259,4299.112513 223.673322,4348.890165 275.730460,4265.767539 438.299353,3986.963125"/>