<configuration>
  <scenario id="3"/>
  <input>
    <net-file value="kirchheim-street-names.net.xml"/>
    <route-files value="scenario3.rou.xml"/>
    <gui-settings-file value="gui-settings-origin-dest-vehicles.cfg"/>
  </input>
  <time>
    <begin value="0"/>
    <end value="10800"/>
  </time>
  <processing>
    <ignore-junction-blocker value="1"/>
  </processing>
</configuration>
