<?xml version="1.0" encoding="UTF-8"?>

<!-- generated on Sun Jul 14 12:48:45 2019 by Eclipse SUMO duarouter Version 1.2.0
<configuration xmlns:xsi="http://www.w3.org/2001/XMLSchema-instance" xsi:noNamespaceSchemaLocation="http://sumo.dlr.de/xsd/duarouterConfiguration.xsd">

    <input>
        <net-file value="../data/input-simulation/kirchheim-street-names.net.xml"/>
        <route-files value="../data/input-simulation/scenario3.trips.xml"/>
    </input>

    <output>
        <output-file value="../data/input-simulation/scenario3.trips.xml.tmp"/>
        <write-trips value="true"/>
    </output>

    <time>
        <begin value="0"/>
        <end value="10800.0"/>
    </time>

    <report>
        <no-warnings value="true"/>
        <ignore-errors value="true"/>
        <no-step-log value="true"/>
    </report>

</configuration>
-->

<routes xmlns:xsi="http://www.w3.org/2001/XMLSchema-instance" xsi:noNamespaceSchemaLocation="http://sumo.dlr.de/xsd/routes_file.xsd">
    <trip id="0" depart="0.00" from="-377180454#0" to="-27444355"/>
    <trip id="1" depart="1.14" from="5107111#2" to="159269894#1"/>
    <trip id="2" depart="2.27" from="-486563017" to="-5107111#3"/>
    <trip id="3" depart="3.41" from="172675262#0" to="191428857"/>
    <trip id="5" depart="5.68" from="22328537#3" to="157150665#1"/>
    <trip id="6" depart="6.82" from="486568145#4" to="49201848#0"/>
    <trip id="7" depart="7.96" from="132908615#8" to="361506385#1"/>
    <trip id="8" depart="9.09" from="26007022#0" to="-22328849#4"/>
    <trip id="9" depart="10.23" from="486568146#1" to="-159269896#0"/>
    <trip id="10" depart="11.37" from="11966436#2" to="4776674#4"/>
    <trip id="11" depart="12.51" from="52381441#3" to="466783104#0"/>
    <trip id="12" depart="13.64" from="167801604#8" to="-157148575#0"/>
    <trip id="13" depart="14.78" from="-25921301#3" to="157150665#1"/>
    <trip id="14" depart="15.92" from="-61925010#0" to="4776674#2"/>
    <trip id="15" depart="17.05" from="61925010#3" to="167978333#10"/>
    <trip id="16" depart="18.19" from="159269897#1" to="263060155#8"/>
    <trip id="17" depart="19.33" from="-177851184" to="-157150660#0"/>
    <trip id="19" depart="21.60" from="5107174#3" to="49201808#1"/>
    <trip id="20" depart="22.74" from="466783104#0" to="-78766899#0"/>
    <trip id="21" depart="23.87" from="5107111#2" to="-157150674#9"/>
    <trip id="22" depart="25.01" from="10264302#3" to="49201833"/>
    <trip id="23" depart="26.15" from="172675262#1" to="172496991#1"/>
    <trip id="25" depart="28.42" from="157147523#1" to="-27444291"/>
    <trip id="26" depart="29.56" from="4776674#4" to="61925002#2"/>
    <trip id="27" depart="30.69" from="-172675260" to="22331056#3"/>
    <trip id="29" depart="32.97" from="-171610162#2" to="81113699#1"/>
    <trip id="31" depart="35.24" from="-180259842#0" to="-412954635"/>
    <trip id="33" depart="37.52" from="22328004#0" to="10962814#1"/>
    <trip id="37" depart="42.06" from="217999470" to="22338211#3"/>
    <trip id="38" depart="43.20" from="26007022#5" to="157150656#3"/>
    <trip id="39" depart="44.34" from="-11966416#6" to="157150674#6"/>
    <trip id="41" depart="46.61" from="35165735" to="159269897#0"/>
    <trip id="42" depart="47.75" from="477543784#1" to="-477543784#2"/>
    <trip id="43" depart="48.88" from="-17749020#3" to="-157151826#0"/>
    <trip id="44" depart="50.02" from="-5107111#1" to="19195949#1"/>
    <trip id="45" depart="51.16" from="159269896#1" to="211364287"/>
    <trip id="46" depart="52.29" from="216226407#1" to="24245994"/>
    <trip id="47" depart="53.43" from="-31427683#0" to="-27199884"/>
    <trip id="48" depart="54.57" from="38085092#0" to="61841069"/>
    <trip id="49" depart="55.71" from="38331805#1" to="486568145#4"/>
    <trip id="51" depart="57.98" from="-412954632" to="83629675"/>
    <trip id="52" depart="59.12" from="-159269898#1" to="61925002#2"/>
    <trip id="54" depart="61.39" from="132857757#1" to="486568145#3"/>
    <trip id="55" depart="62.53" from="-268268082#6" to="-5107111#1"/>
    <trip id="57" depart="64.80" from="-17749020#1" to="-144137432#0"/>
    <trip id="58" depart="65.94" from="38526008#13" to="-41210009#3"/>
    <trip id="59" depart="67.07" from="-159269897#1" to="-477543784#0"/>
    <trip id="60" depart="68.21" from="38331801#1" to="177851183"/>
    <trip id="61" depart="69.35" from="38331793#1" to="-22328537#1"/>
    <trip id="62" depart="70.48" from="8227799#0" to="4776674#0"/>
    <trip id="66" depart="75.03" from="10965854#11" to="-196193012#1"/>
    <trip id="67" depart="76.17" from="31427705#0" to="-466783103"/>
    <trip id="68" depart="77.31" from="22328004#0" to="466783104#0"/>
    <trip id="69" depart="78.44" from="-486816941#0" to="-122401180"/>
    <trip id="70" depart="79.58" from="-159269896#1" to="-486568145#1"/>
    <trip id="72" depart="81.85" from="167978333#14" to="49201848#0"/>
    <trip id="73" depart="82.99" from="412618716" to="-157149627"/>
    <trip id="74" depart="84.13" from="78766899#2" to="403212739"/>
    <trip id="75" depart="85.26" from="-22327901#0" to="-5107111#1"/>
    <trip id="76" depart="86.40" from="206030314#0" to="466783103"/>
    <trip id="77" depart="87.54" from="8227799#1" to="-361506385#2"/>
    <trip id="78" depart="88.67" from="-61816454" to="-27444291"/>
    <trip id="79" depart="89.81" from="11007659#0" to="-132908615#1"/>
    <trip id="80" depart="90.95" from="11967580#4" to="157150660#10"/>
    <trip id="81" depart="92.08" from="26007022#5" to="-345311199"/>
    <trip id="82" depart="93.22" from="-240829815#1" to="-10965854#4"/>
    <trip id="83" depart="94.36" from="-157150670#6" to="403212739"/>
    <trip id="84" depart="95.49" from="96020721#0" to="149102061#11"/>
    <trip id="85" depart="96.63" from="157151826#1" to="-122401180"/>
    <trip id="86" depart="97.77" from="-441725226#0" to="-167978333#4"/>
    <trip id="88" depart="100.04" from="177851184" to="24245994"/>
    <trip id="89" depart="101.18" from="4046250#0" to="486568145#3"/>
    <trip id="90" depart="102.32" from="-8226386#2" to="4776674#2"/>
    <trip id="91" depart="103.45" from="4776674#4" to="-22323598#8"/>
    <trip id="92" depart="104.59" from="-173168679#0" to="31427683#2"/>
    <trip id="94" depart="106.86" from="-61925010#0" to="-159269898#1"/>
    <trip id="95" depart="108.00" from="477543784#0" to="157148579#0"/>
    <trip id="97" depart="110.27" from="38526008#13" to="5107111#1"/>
    <trip id="98" depart="111.41" from="149102061#0" to="-144116761"/>
    <trip id="99" depart="112.55" from="4046250#4" to="362226764"/>
    <trip id="101" depart="114.82" from="-290573638" to="-28303350#2"/>
    <trip id="102" depart="115.96" from="8274069#2" to="52381439#2"/>
    <trip id="103" depart="117.09" from="144137437#0" to="38331793#0"/>
    <trip id="105" depart="119.37" from="-157148579#2" to="-518807824#3"/>
    <trip id="106" depart="120.51" from="-3994454#1" to="4776674#3"/>
    <trip id="109" depart="123.92" from="-11966432#0" to="177850794#2"/>
    <trip id="110" depart="125.05" from="-11966437#4" to="344110604#0"/>
    <trip id="111" depart="126.19" from="306402358" to="-61925002#2"/>
    <trip id="112" depart="127.33" from="62143075#0" to="35165711"/>
    <trip id="113" depart="128.46" from="4046933#0" to="-19195949#1"/>
    <trip id="114" depart="129.60" from="-157150660#7" to="37740516#1"/>
    <trip id="115" depart="130.74" from="466783103" to="-486563017"/>
    <trip id="116" depart="131.87" from="-157151824#0" to="268268097#0"/>
    <trip id="117" depart="133.01" from="46737899" to="157150656#7"/>
    <trip id="118" depart="134.15" from="-196193012#3" to="-466783103"/>
    <trip id="119" depart="135.28" from="-107103752#0" to="-27444291"/>
    <trip id="120" depart="136.42" from="-22337654#1" to="-4082047#2"/>
    <trip id="122" depart="138.69" from="-173168679#1" to="-157149627"/>
    <trip id="124" depart="140.97" from="49201808#3" to="341128265#2"/>
    <trip id="125" depart="142.11" from="-486568146#0" to="1678518#5"/>
    <trip id="126" depart="143.24" from="-10965854#11" to="-38526008#15"/>
    <trip id="127" depart="144.38" from="-167978333#11" to="486568146#0"/>
    <trip id="128" depart="145.52" from="58698096#0" to="4045955#1"/>
    <trip id="130" depart="147.79" from="-344843906" to="4082097"/>
    <trip id="131" depart="148.93" from="31427683#6" to="172496991#0"/>
    <trip id="132" depart="150.06" from="36996485#0" to="-77049898#1"/>
    <trip id="134" depart="152.34" from="-157150656#2" to="38526008#14"/>
    <trip id="135" depart="153.47" from="304254611" to="-157152190#2"/>
    <trip id="136" depart="154.61" from="-171610162#0" to="384683195"/>
    <trip id="137" depart="155.75" from="475117917#5" to="61925010#2"/>
    <trip id="139" depart="158.02" from="486563017" to="362226760#3"/>
    <trip id="140" depart="159.16" from="-22328011" to="38331793#1"/>
    <trip id="141" depart="160.29" from="157150656#12" to="38331805#0"/>
    <trip id="143" depart="162.57" from="-4776674#4" to="-345311195#3"/>
    <trip id="144" depart="163.71" from="38331791#1" to="22328848#3"/>
    <trip id="145" depart="164.84" from="-157151822#0" to="-157149992#5"/>
    <trip id="146" depart="165.98" from="-28303350#1" to="154182822#0"/>
    <trip id="147" depart="167.12" from="-177851182#5" to="475117917#4"/>
    <trip id="148" depart="168.25" from="-11967580#0" to="81113699#1"/>
    <trip id="149" depart="169.39" from="-77049898#3" to="-27444291"/>
    <trip id="152" depart="172.80" from="412954611" to="35580594"/>
    <trip id="153" depart="173.94" from="24245994" to="-10962566#2"/>
    <trip id="154" depart="175.07" from="-10505524#1" to="-5107174#2"/>
    <trip id="156" depart="177.35" from="-11967580#5" to="-466783104#0"/>
    <trip id="157" depart="178.48" from="25921301#0" to="1678518#0"/>
    <trip id="158" depart="179.62" from="-22328205#5" to="211364287"/>
    <trip id="159" depart="180.76" from="11966437#8" to="-196193012#1"/>
    <trip id="161" depart="183.03" from="38526008#9" to="132908615#8"/>
    <trip id="162" depart="184.17" from="-26007022#3" to="172496991#1"/>
    <trip id="164" depart="186.44" from="486568146#0" to="81113693#1"/>
    <trip id="165" depart="187.58" from="-119140950#0" to="4294652#1"/>
    <trip id="167" depart="189.85" from="31427705#1" to="-367696#2"/>
    <trip id="169" depart="192.13" from="-31427683#1" to="-4776674#3"/>
    <trip id="170" depart="193.26" from="-4045955#0" to="-59374020"/>
    <trip id="171" depart="194.40" from="243092496#0" to="-377325783#1"/>
    <trip id="172" depart="195.54" from="345235519#2" to="-362226760#2"/>
    <trip id="173" depart="196.67" from="167978333#2" to="-34340976#3"/>
    <trip id="174" depart="197.81" from="477543784#0" to="35777564#0"/>
    <trip id="175" depart="198.95" from="-27866152" to="11966413#0"/>
    <trip id="176" depart="200.08" from="-307570927#0" to="-157151826#0"/>
    <trip id="177" depart="201.22" from="177851184" to="-159269897#0"/>
    <trip id="178" depart="202.36" from="345235519#1" to="-157147523#0"/>
    <trip id="179" depart="203.49" from="-4294652#3" to="22328913#4"/>
    <trip id="180" depart="204.63" from="-341128265#0" to="-466783103"/>
    <trip id="181" depart="205.77" from="8226386#1" to="-27866152"/>
    <trip id="182" depart="206.91" from="-11966437#0" to="36996487#1"/>
    <trip id="183" depart="208.04" from="-412954649" to="25921099"/>
    <trip id="184" depart="209.18" from="31427705#8" to="-22328914#2"/>
    <trip id="185" depart="210.32" from="22331056#9" to="466783104#0"/>
    <trip id="186" depart="211.45" from="-486568146#1" to="-22328913#3"/>
    <trip id="187" depart="212.59" from="-26007022#4" to="49201808#1"/>
    <trip id="188" depart="213.73" from="58698093#0" to="38331806#0"/>
    <trip id="190" depart="216.00" from="-362226760#3" to="11966432#1"/>
    <trip id="191" depart="217.14" from="-369182824" to="-38526008#14"/>
    <trip id="192" depart="218.27" from="-159269896#0" to="326418275"/>
    <trip id="194" depart="220.55" from="-477543784#2" to="4776674#1"/>
    <trip id="195" depart="221.68" from="253356368" to="4045955#1"/>
    <trip id="196" depart="222.82" from="19195949#1" to="-8226386#4"/>
    <trip id="197" depart="223.96" from="78346874#0" to="24245994"/>
    <trip id="198" depart="225.09" from="25921099" to="5107111#0"/>
    <trip id="199" depart="226.23" from="-159269896#0" to="486563018"/>
    <trip id="200" depart="227.37" from="8227799#2" to="217999472"/>
    <trip id="201" depart="228.51" from="-341128265#3" to="-159269896#2"/>
    <trip id="202" depart="229.64" from="-11967580#4" to="211364287"/>
    <trip id="203" depart="230.78" from="-157151824#0" to="-38526008#14"/>
    <trip id="204" depart="231.92" from="243092496#1" to="-61925010#3"/>
    <trip id="205" depart="233.05" from="-11966437#0" to="486563017"/>
    <trip id="208" depart="236.46" from="26007022#5" to="157150660#11"/>
    <trip id="209" depart="237.60" from="398234685" to="15777957"/>
    <trip id="210" depart="238.74" from="173168679#0" to="43793487"/>
    <trip id="211" depart="239.87" from="-31427705#6" to="-61925010#3"/>
    <trip id="213" depart="242.15" from="52381439#2" to="157150707#1"/>
    <trip id="214" depart="243.28" from="-341128265#4" to="157150660#3"/>
    <trip id="215" depart="244.42" from="172675262#1" to="-157999751"/>
    <trip id="216" depart="245.56" from="34335064" to="486568145#3"/>
    <trip id="217" depart="246.69" from="-4045955#0" to="-362226760#7"/>
    <trip id="218" depart="247.83" from="180259843#1" to="35580594"/>
    <trip id="219" depart="248.97" from="-31427705#5" to="19195949#1"/>
    <trip id="220" depart="250.11" from="-11967580#3" to="-211364287"/>
    <trip id="221" depart="251.24" from="8227799#1" to="-157150656#6"/>
    <trip id="224" depart="254.65" from="8227799#0" to="477543784#2"/>
    <trip id="225" depart="255.79" from="-431553656#2" to="24245994"/>
    <trip id="226" depart="256.93" from="-216510383" to="-19195949#1"/>
    <trip id="227" depart="258.06" from="68526365" to="-11966417#0"/>
    <trip id="228" depart="259.20" from="-62143074" to="4045955#0"/>
    <trip id="229" depart="260.34" from="-4776904#0" to="-4776674#2"/>
    <trip id="230" depart="261.47" from="177850794#2" to="-157147524#13"/>
    <trip id="231" depart="262.61" from="-77049898#1" to="149102061#8"/>
    <trip id="232" depart="263.75" from="19161388#7" to="-61925010#3"/>
    <trip id="233" depart="264.88" from="-122401181" to="96400348"/>
    <trip id="234" depart="266.02" from="475117917#1" to="-1678518#8"/>
    <trip id="235" depart="267.16" from="-11967580#4" to="-81113692#7"/>
    <trip id="236" depart="268.29" from="36996487#1" to="-22338212#2"/>
    <trip id="238" depart="270.57" from="19195481#1" to="159269896#1"/>
    <trip id="239" depart="271.71" from="-22328004#1" to="-22331052"/>
    <trip id="240" depart="272.84" from="34335064" to="177850794#0"/>
    <trip id="242" depart="275.12" from="10264302#4" to="61925002#2"/>
    <trip id="243" depart="276.25" from="412954648#0" to="263060155#2"/>
    <trip id="244" depart="277.39" from="-167978333#11" to="30032437"/>
    <trip id="245" depart="278.53" from="196193008#0" to="22338210#2"/>
    <trip id="246" depart="279.66" from="31427705#0" to="22338211#7"/>
    <trip id="247" depart="280.80" from="-167801604#5" to="371961405#3"/>
    <trip id="248" depart="281.94" from="-486816937" to="22327902#2"/>
    <trip id="249" depart="283.07" from="167801604#7" to="-157150660#11"/>
    <trip id="250" depart="284.21" from="-11966402#2" to="26007022#2"/>
    <trip id="251" depart="285.35" from="27444291" to="-61925002#2"/>
    <trip id="252" depart="286.48" from="11967580#1" to="-157149627"/>
    <trip id="253" depart="287.62" from="-2210065#3" to="36996487#0"/>
    <trip id="254" depart="288.76" from="-11966402#2" to="-518807824#3"/>
    <trip id="255" depart="289.89" from="17749020#1" to="-263060155#0"/>
    <trip id="256" depart="291.03" from="596915961#7" to="177850794#1"/>
    <trip id="257" depart="292.17" from="22328010#1" to="-326418286"/>
    <trip id="258" depart="293.31" from="-362226760#1" to="61925002#2"/>
    <trip id="260" depart="295.58" from="-4776674#3" to="-38526008#14"/>
    <trip id="261" depart="296.72" from="17749021" to="172496990#0"/>
    <trip id="262" depart="297.85" from="-167978333#11" to="4294652#3"/>
    <trip id="263" depart="298.99" from="157151822#1" to="216510383"/>
    <trip id="264" depart="300.13" from="38526008#9" to="4045955#0"/>
    <trip id="266" depart="302.40" from="-345235519#0" to="466783104#0"/>
    <trip id="267" depart="303.54" from="167978333#13" to="61925010#2"/>
    <trip id="269" depart="305.81" from="-77049898#1" to="27549653"/>
    <trip id="270" depart="306.95" from="-4776674#4" to="31427683#6"/>
    <trip id="271" depart="308.08" from="157148579#4" to="-11966437#1"/>
    <trip id="273" depart="310.36" from="11967580#3" to="345311195#2"/>
    <trip id="274" depart="311.49" from="157147523#2" to="-157150656#8"/>
    <trip id="275" depart="312.63" from="-159269896#0" to="36240523#2"/>
    <trip id="276" depart="313.77" from="58698092#0" to="11966402#4"/>
    <trip id="277" depart="314.91" from="-25921301#1" to="-22338211#1"/>
    <trip id="278" depart="316.04" from="144959665" to="159269897#0"/>
    <trip id="279" depart="317.18" from="34338474#2" to="-10962566#0"/>
    <trip id="280" depart="318.32" from="10965170#0" to="-22328852#3"/>
    <trip id="281" depart="319.45" from="-167978333#4" to="-157149992#6"/>
    <trip id="282" depart="320.59" from="216226407#1" to="154182822#1"/>
    <trip id="283" depart="321.73" from="154182822#2" to="22328910#3"/>
    <trip id="284" depart="322.86" from="119140950#0" to="159269894#1"/>
    <trip id="285" depart="324.00" from="-22328011" to="-157149627"/>
    <trip id="287" depart="326.27" from="172026612#1" to="-369182824"/>
    <trip id="289" depart="328.55" from="-8226386#2" to="43793487"/>
    <trip id="290" depart="329.68" from="-371961405#1" to="466783104#0"/>
    <trip id="291" depart="330.82" from="62143075#1" to="19195949#1"/>
    <trip id="296" depart="336.51" from="4046250#1" to="-24245994"/>
    <trip id="297" depart="337.64" from="31427705#1" to="22323599#4"/>
    <trip id="298" depart="338.78" from="-17749020#4" to="122401180"/>
    <trip id="299" depart="339.92" from="-477543784#0" to="466783104#0"/>
    <trip id="300" depart="341.05" from="-157151822#0" to="49201808#0"/>
    <trip id="301" depart="342.19" from="3994450#3" to="-3994433#7"/>
    <trip id="303" depart="344.46" from="326418276" to="22328910#1"/>
    <trip id="304" depart="345.60" from="157151822#0" to="-24245994"/>
    <trip id="305" depart="346.74" from="11966437#8" to="157150707#1"/>
    <trip id="306" depart="347.87" from="-2210065#3" to="-221093011"/>
    <trip id="307" depart="349.01" from="-596915961#0" to="326418281"/>
    <trip id="308" depart="350.15" from="-217449833#1" to="157151824#0"/>
    <trip id="309" depart="351.28" from="-96400341" to="-486568146#0"/>
    <trip id="310" depart="352.42" from="216226408" to="466783103"/>
    <trip id="311" depart="353.56" from="-326418286" to="177850794#0"/>
    <trip id="312" depart="354.69" from="-132908615#0" to="49201808#1"/>
    <trip id="313" depart="355.83" from="477543784#0" to="157150670#0"/>
    <trip id="314" depart="356.97" from="10864326#1" to="157149627"/>
    <trip id="315" depart="358.11" from="157151824#1" to="177851182#5"/>
    <trip id="316" depart="359.24" from="-412618715" to="-263060155#3"/>
    <trip id="318" depart="361.52" from="157151824#0" to="-22337656#4"/>
    <trip id="319" depart="362.65" from="-144959664" to="122401180"/>
    <trip id="320" depart="363.79" from="25921301#0" to="606474649#1"/>
    <trip id="321" depart="364.93" from="49201848#1" to="345311199"/>
    <trip id="322" depart="366.06" from="-52381441#3" to="-466783103"/>
    <trip id="323" depart="367.20" from="486568145#2" to="3994454#2"/>
    <trip id="324" depart="368.34" from="22328010#1" to="-167864671#0"/>
    <trip id="325" depart="369.47" from="-345235519#1" to="-180259842#1"/>
    <trip id="326" depart="370.61" from="96400341" to="-369182824"/>
    <trip id="327" depart="371.75" from="412618715" to="361506385#2"/>
    <trip id="329" depart="374.02" from="11966437#3" to="167978333#5"/>
    <trip id="331" depart="376.29" from="96020716#1" to="-486568145#3"/>
    <trip id="333" depart="378.57" from="-412618715" to="211364287"/>
    <trip id="334" depart="379.71" from="173168679#1" to="-157150707#0"/>
    <trip id="337" depart="383.12" from="-26007022#0" to="-177851183"/>
    <trip id="338" depart="384.25" from="222143269" to="-10962814#1"/>
    <trip id="339" depart="385.39" from="486568145#1" to="-22331056#11"/>
    <trip id="340" depart="386.53" from="5107111#2" to="-132908614#5"/>
    <trip id="343" depart="389.94" from="-31091368" to="159269897#1"/>
    <trip id="344" depart="391.07" from="-49201848#1" to="34340977#3"/>
    <trip id="345" depart="392.21" from="-345235519#0" to="38526095#2"/>
    <trip id="346" depart="393.35" from="4776674#2" to="-27444291"/>
    <trip id="348" depart="395.62" from="38331801#1" to="4045955#1"/>
    <trip id="349" depart="396.76" from="159269897#0" to="431553656#2"/>
    <trip id="350" depart="397.89" from="167978333#4" to="-369182824"/>
    <trip id="351" depart="399.03" from="-11967580#3" to="-52381441#0"/>
    <trip id="352" depart="400.17" from="361506385#1" to="35580594"/>
    <trip id="354" depart="402.44" from="-159269897#0" to="211364287"/>
    <trip id="356" depart="404.72" from="196193012#3" to="-77049898#7"/>
    <trip id="357" depart="405.85" from="-412618716" to="5107111#3"/>
    <trip id="358" depart="406.99" from="25921301#0" to="-172496991#1"/>
    <trip id="359" depart="408.13" from="171610162#0" to="-22337654#0"/>
    <trip id="360" depart="409.26" from="-159269896#2" to="-157150660#2"/>
    <trip id="361" depart="410.40" from="38526008#0" to="-159269898#1"/>
    <trip id="362" depart="411.54" from="-486568145#2" to="157147523#2"/>
    <trip id="364" depart="413.81" from="-38526008#16" to="398398153"/>
    <trip id="365" depart="414.95" from="-31427705#1" to="157151824#0"/>
    <trip id="366" depart="416.08" from="486568145#4" to="22328205#4"/>
    <trip id="367" depart="417.22" from="132908614#5" to="345311198#4"/>
    <trip id="368" depart="418.36" from="4046250#4" to="159269896#0"/>
    <trip id="369" depart="419.49" from="-8227799#2" to="172496992#0"/>
    <trip id="372" depart="422.91" from="-25921301#0" to="11966436#0"/>
    <trip id="373" depart="424.04" from="4294652#3" to="240829815#1"/>
    <trip id="374" depart="425.18" from="11966416#3" to="35580594"/>
    <trip id="375" depart="426.32" from="22328010#1" to="-486568146#1"/>
    <trip id="377" depart="428.59" from="4776674#3" to="-4776674#4"/>
    <trip id="378" depart="429.73" from="81113699#1" to="-3994450#3"/>
    <trip id="379" depart="430.86" from="-62143074" to="167978333#5"/>
    <trip id="380" depart="432.00" from="182748225" to="-40797138"/>
    <trip id="381" depart="433.14" from="-371961405#2" to="22338220"/>
    <trip id="382" depart="434.27" from="421624048" to="4045955#0"/>
    <trip id="383" depart="435.41" from="-190819940#1" to="-149102061#1"/>
    <trip id="384" depart="436.55" from="182748225" to="-177851182#5"/>
    <trip id="385" depart="437.68" from="11966437#5" to="-144959664"/>
    <trip id="386" depart="438.82" from="-22325218#1" to="171610162#0"/>
    <trip id="387" depart="439.96" from="486816929#1" to="-211364287"/>
    <trip id="388" depart="441.09" from="11966417#1" to="-122401180"/>
    <trip id="389" depart="442.23" from="-157147523#0" to="-8226386#4"/>
    <trip id="390" depart="443.37" from="177851184" to="34340975#1"/>
    <trip id="391" depart="444.51" from="-171610162#0" to="-1678518#0"/>
    <trip id="392" depart="445.64" from="-403212739" to="157150656#10"/>
    <trip id="393" depart="446.78" from="-122401180" to="-8009745#7"/>
    <trip id="395" depart="449.05" from="11966435" to="-159269898#0"/>
    <trip id="396" depart="450.19" from="-19195949#1" to="35777564#2"/>
    <trip id="397" depart="451.33" from="177850794#1" to="-362226760#2"/>
    <trip id="398" depart="452.46" from="-11966414#6" to="-361506385#5"/>
    <trip id="399" depart="453.60" from="-341128265#5" to="-196193007#1"/>
    <trip id="401" depart="455.87" from="-132857756#3" to="159269898#1"/>
    <trip id="402" depart="457.01" from="-171610162#1" to="-37740515#2"/>
    <trip id="403" depart="458.15" from="-62143074" to="17749020#3"/>
    <trip id="407" depart="462.69" from="119140950#0" to="-268268088#0"/>
    <trip id="408" depart="463.83" from="-157148586#4" to="10965170#2"/>
    <trip id="409" depart="464.97" from="22323598#9" to="-326418281"/>
    <trip id="410" depart="466.11" from="5107111#0" to="-34340977#1"/>
    <trip id="411" depart="467.24" from="-26007022#0" to="596915961#5"/>
    <trip id="412" depart="468.38" from="41213181#0" to="211364287"/>
    <trip id="413" depart="469.52" from="-31427705#5" to="-27444291"/>
    <trip id="414" depart="470.65" from="319103476#1" to="-22328910#2"/>
    <trip id="415" depart="471.79" from="11967580#0" to="96020721#0"/>
    <trip id="417" depart="474.06" from="11966436#1" to="22328522#3"/>
    <trip id="418" depart="475.20" from="173168683" to="8009745#2"/>
    <trip id="420" depart="477.47" from="-22328847#2" to="263015086#1"/>
    <trip id="421" depart="478.61" from="-27199868#0" to="19161388#2"/>
    <trip id="422" depart="479.75" from="196193006#10" to="8226386#4"/>
    <trip id="423" depart="480.88" from="369182825" to="-466783104#0"/>
    <trip id="424" depart="482.02" from="11966437#1" to="35580594"/>
    <trip id="426" depart="484.29" from="11966437#1" to="-167801604#8"/>
    <trip id="428" depart="486.57" from="341128265#6" to="4776992#2"/>
    <trip id="429" depart="487.71" from="3994433#9" to="196193010"/>
    <trip id="430" depart="488.84" from="4776674#0" to="4294652#2"/>
    <trip id="432" depart="491.12" from="4082047#2" to="4734923#0"/>
    <trip id="433" depart="492.25" from="11966413#0" to="-4045955#1"/>
    <trip id="434" depart="493.39" from="421624047" to="4294652#3"/>
    <trip id="435" depart="494.53" from="11966413#0" to="-122401181"/>
    <trip id="436" depart="495.66" from="-52381439#0" to="-26007022#2"/>
    <trip id="438" depart="497.94" from="19161388#4" to="4294652#2"/>
    <trip id="439" depart="499.07" from="132908615#0" to="31427683#0"/>
    <trip id="440" depart="500.21" from="4776819#0" to="-81113692#3"/>
    <trip id="442" depart="502.48" from="173168679#0" to="-122401180"/>
    <trip id="443" depart="503.62" from="486568145#4" to="19195949#1"/>
    <trip id="444" depart="504.76" from="4046250#4" to="-22337656#10"/>
    <trip id="446" depart="507.03" from="-307570927#0" to="-22323598#4"/>
    <trip id="447" depart="508.17" from="-31091368" to="-518807821"/>
    <trip id="448" depart="509.31" from="-367696#4" to="-217449833#1"/>
    <trip id="449" depart="510.44" from="-4776674#2" to="22328852#1"/>
    <trip id="450" depart="511.58" from="-11967580#2" to="-17749021"/>
    <trip id="451" depart="512.72" from="157147524#12" to="486816938#2"/>
    <trip id="452" depart="513.85" from="-196193012#0" to="-5107111#3"/>
    <trip id="453" depart="514.99" from="-8227799#0" to="122401180"/>
    <trip id="454" depart="516.13" from="177851184" to="-52381441#0"/>
    <trip id="455" depart="517.26" from="-157151822#0" to="157149627"/>
    <trip id="456" depart="518.40" from="-157151822#1" to="-8009283"/>
    <trip id="457" depart="519.54" from="4046250#2" to="-341128265#0"/>
    <trip id="458" depart="520.67" from="157151824#1" to="-35580594"/>
    <trip id="459" depart="521.81" from="-144959664" to="-486816937"/>
    <trip id="460" depart="522.95" from="11966437#8" to="-24245994"/>
    <trip id="461" depart="524.08" from="157150656#1" to="35165735"/>
    <trip id="462" depart="525.22" from="240829815#0" to="-171610162#1"/>
    <trip id="463" depart="526.36" from="-157151822#1" to="-5107111#1"/>
    <trip id="464" depart="527.49" from="35580594" to="-11966435"/>
    <trip id="466" depart="529.77" from="-49201848#2" to="157151822#0"/>
    <trip id="467" depart="530.91" from="-49201848#2" to="-10965854#11"/>
    <trip id="468" depart="532.04" from="-11966407#1" to="-477543784#0"/>
    <trip id="470" depart="534.32" from="-149102061#2" to="17749018#2"/>
    <trip id="471" depart="535.45" from="-196193007#0" to="4045955#1"/>
    <trip id="472" depart="536.59" from="-4776674#4" to="22323597#3"/>
    <trip id="473" depart="537.73" from="217999472" to="-122401180"/>
    <trip id="475" depart="540.00" from="-132857756#3" to="377325784#0"/>
    <trip id="476" depart="541.14" from="-477543784#1" to="-159269898#0"/>
    <trip id="477" depart="542.27" from="341128265#4" to="-22328198#1"/>
    <trip id="479" depart="544.55" from="-486816938#2" to="157151826#1"/>
    <trip id="480" depart="545.68" from="8226386#1" to="-122401181"/>
    <trip id="481" depart="546.82" from="-307570927#0" to="-10505524#1"/>
    <trip id="482" depart="547.96" from="4294652#1" to="-362226760#3"/>
    <trip id="483" depart="549.09" from="-3994460#5" to="-34340972#0"/>
    <trip id="484" depart="550.23" from="83629678#0" to="362226760#7"/>
    <trip id="485" depart="551.37" from="157147523#2" to="22325217"/>
    <trip id="486" depart="552.51" from="8226386#2" to="-8226386#4"/>
    <trip id="487" depart="553.64" from="-31427683#4" to="-4045955#1"/>
    <trip id="488" depart="554.78" from="-144137427#1" to="-172496995#1"/>
    <trip id="491" depart="558.19" from="132857756#2" to="8226386#2"/>
    <trip id="492" depart="559.33" from="58698093#1" to="31427705#1"/>
    <trip id="494" depart="561.60" from="11966437#5" to="-10964113#0"/>
    <trip id="495" depart="562.74" from="-371961405#3" to="253354842"/>
    <trip id="496" depart="563.87" from="167978333#11" to="22328910#5"/>
    <trip id="497" depart="565.01" from="-159269897#0" to="-211364287"/>