<routes xmlns:xsi="http://www.w3.org/2001/XMLSchema-instance" xsi:noNamespaceSchemaLocation="http://sumo.dlr.de/xsd/routes_file.xsd">
    <vehicle color="102, 179, 255" depart="2.84" id="1">
        <route edges="-27444291 27444291 -157149626#0 -345235527#2 -345235527#1 -307570927#3 -307570927#2 -307570927#1 206030314#0 206030314#1 157147523#1 173168679#0 173168683 -34335064 -34335059 -10962242#1 -10962242#0 345311196#2 -10864326#2 -10864326#1 -10864326#0 263015086#0 22325217 -22323598#9 -22323598#8 -22323598#7 -22323598#6 -22323598#5 -22323598#4 -22323598#3 -22323598#1 -22323598#0 319103476#0 319103476#1 319104287#0 319104287#1 319104287#2 319104287#3 319104287#4 319104287#5 -8009283 -132908614#1 -132908614#0 -15777958#1 -15777958#0 159190385 5107173 264221491 326418291 5107172#0 5107172#1 264221488 -145173768 -30032439 -38059362 -217999473 -326418282 -290573638 -45559083 -187388862 -326418284 -326418280 -326418286 -326418281 -96400328 -5107127 5059728" />
    </vehicle>
    <vehicle color="102, 179, 255" depart="5.68" id="2">
        <route edges="412954648#1 -412954611 -412954610 -38331806#0 421614348 4901993#0 4901993#1 10264302#0 10264302#1 10264302#2 10264302#3 10264302#4 421614353 421614349 38331793#0 38331793#1 46737898 46737899 38059694 326418285 217999470 290573638 217999472 217999473 38059362 30032439 145173768 52937669 264221489 419858870 264221490 4082009 -421617196 -44369045 -419858869 -96400341 -96400332 -96400348 -144116761 -144116760#1 4294652#1 5107111#0 5107111#1 5107111#2 -5107111#2" />
    </vehicle>
    <vehicle color="255, 51, 153" depart="8.53" id="3">
        <route edges="22338220 -22338220 -10965854#4 -10965854#3 -10965854#2 -10965854#1 -10965854#0 -34340976#4 -34340976#3 -34340976#2 -34340976#1 -34340976#0 -81113692#7 -81113692#6 -81113692#5 -81113692#4 -81113692#3 -81113692#2 -81113692#1 -22334431#1 -22334431#0 -101975654 -333348016#2 -333348016#1 -333348016#0 -80638158 -596915961#6 -596915961#5 -596915961#4 -596915961#3 -596915961#2 -596915961#0 -78766899#2 -78766899#1" />
    </vehicle>
    <vehicle color="255, 153, 51" depart="17.05" id="6">
        <route edges="4776674#2 -4776674#2 -4776674#1 -4776674#0 -4294652#3 -4294652#2 -4294652#1 144116760#1 144116761 157150667 -157150665#3 -157150665#2 -157150665#0 -486563015#1 -486816946 -486816948#0 -2521535 -153431406#2 -153431406#1 -153431406#0 -34340976#14 -34340976#13 -34340976#12 -34340976#11 -34340976#9 -34340976#7 -34340976#6 -34340976#5 -34340976#4 -34340976#3 -34340976#2 -34340976#1 -34340976#0 -157147524#13 -157147524#12 -157147524#11 -157147524#9 -157147524#8 -157147524#7 -157147524#5 -157147524#4 -157147524#2 -157147524#0 -486563018 -486563014 -22327901#3 -22327901#0 8009313#1 8009313#2 8009313#3 22328011 26007021 25921294" />
    </vehicle>
    <vehicle color="255, 153, 51" depart="22.74" id="8">
        <route edges="-36240523#2 36240523#2 3994433#6 3994433#7 3994433#8 3994433#9 3994433#10 3994433#12 157150665#0 157150665#1 157150665#3 35571978 96400332 96400341 419858869 44369045 421617196 52937670 264221491 326418291 5107172#0 5107172#1 264221488 -145173768 -30032439 -38059362 -217999473 -326418282 -290573638 -45559083 -187388862 -326418284 38059694 326418285 19798104" />
    </vehicle>
    <vehicle color="102, 179, 255" depart="25.58" id="9">
        <route edges="167978333#16 -11966412#1 11966412#1" />
    </vehicle>
    <vehicle color="102, 179, 255" depart="28.42" id="10">
        <route edges="-412618715 -68526365 68526365 412618715 59374025 412618717 59374020 412618716 412618718 412618719#0 412618719#1 199222162 -326418280 -326418286 -326418281 -96400328 -5107127 -38059692 -412954635 -412954634 -412954633 -412954632 412954632 412954633" />
    </vehicle>
    <vehicle color="255, 51, 153" depart="31.26" id="11">
        <route edges="157148586#3 157148586#4 263060155#0 -22328205#2 -22328205#1 -22328205#0 157148575#0 157148575#1 157148575#2 22327901#2 486563016 486816973 22327902#0 22327902#1 22327902#2 22327902#3 22327902#4 34335064 -144959665 -172675262#1 -172675262#0 -172675260 -171610162#2 -171610162#1 -171610162#0 -345235519#2 -345235519#1 -345235519#0 -196193007#1 -196193007#0 77049898#1 77049898#2 77049898#3 77049898#4 77049898#6 -77049898#6" />
    </vehicle>
    <vehicle color="102, 179, 255" depart="36.95" id="13">
        <route edges="167978333#5 167978333#6 167978333#7 167978333#10 167978333#11 27866152 132857756#2 132857756#3 132857756#8 31427705#0 -31427705#0" />
    </vehicle>
    <vehicle color="102, 179, 255" depart="39.79" id="14">
        <route edges="466783104#0 221093005 -307570927#3 -307570927#2 -307570927#1 206030314#0 206030314#1 157147523#1 173168679#0 173168683 -34335064 -34335059 -10962242#1 -10962242#0 345311196#2 -10864326#2 -10864326#1 -10864326#0 263015086#0 22325217 -22323598#9 -22323598#8 -22323598#7 -22323598#6 -22323598#5 -22323598#4 -22323598#3 -22323598#1 -22323598#0 319103476#0 319103476#1 319104287#0 319104287#1 319104287#2 319104287#3 319104287#4 319104287#5 -8009283 -132908614#1 -132908614#0 -15777958#1 -15777958#0 159190385 5107173 264221491 187384034 -157150674#10 -157150674#9 -157150674#7 -157150674#6 -157150674#5 -157150674#4 -157150674#3 -157150674#2 -157150674#0 149102061#0 149102061#1 149102061#2 149102061#3 149102061#4 149102061#5 149102061#6 149102061#8 -149102061#8" />
    </vehicle>
    <vehicle color="255, 153, 51" depart="42.63" id="15">
        <route edges="-486568145#3 -486568145#2 -486568145#1 144116760#1 144116761 157150667 -157150665#3 -157150665#2 -157150665#0 -486563015#1 -486816946 -486816948#0 -2521535 -153431406#2 -153431406#1 -153431406#0 -34340976#14 -34340976#13 -34340976#12 -34340976#11 -34340976#9 -34340976#7 -34340976#6 -34340976#5 -34340976#4 -34340976#3 -34340976#2 -34340976#1 -34340976#0 -81113692#7 -81113692#6 -81113692#5 -81113692#4 -81113692#3 -81113692#2 22323598#0 22323598#1 22323598#3 22323598#4 22323598#5 22323598#6 22323598#7 22323598#8 22323598#9 -22325217 -263015086#0 10864326#0" />
    </vehicle>
    <vehicle color="255, 153, 51" depart="45.47" id="16">
        <route edges="177851182#5 -177851182#5 -3994460#5 -3994460#4 -3994460#3 -3994460#2 -3994460#1 -3994460#0 -2210065#2 -2210065#1 -2210065#0 3994433#8 3994433#9 3994433#10 3994433#12 157150665#0 157150665#1 157150665#3 35571978 96400332 96400341 419858869 44369045 421617196 52937670 264221491 326418291 5107172#0 5107172#1 264221488 -145173768 -30032439 -38059362 -217999473 -326418282 -290573638 -45559083 -187388862 -326418284 -326418280 -326418286 -326418281 -96400328 -5107127 5059728 412954649 5059730 412954648#0 412954648#1 4046554#0 4046554#2 4046554#3 96020721#0 96020721#1 398234685 58698097#0 58698097#1 238896280#0 -144137427#1" />
    </vehicle>
    <vehicle color="255, 51, 153" depart="48.32" id="17">
        <route edges="22328198#0 22328198#1 81113693#0 81113693#1 -369182823#0 -377329808#1 5107121#0 -157149624#0 345235527#3" />
    </vehicle>
    <vehicle color="255, 153, 51" depart="51.16" id="18">
        <route edges="8226386#4 159269896#1 159269896#2 35165711 159269895#1 477543784#0 477543784#1 159269897#0" />
    </vehicle>
    <vehicle color="255, 153, 51" depart="54.00" id="19">
        <route edges="-157150660#0 157150660#0 157150660#1 157150660#2 157150660#3 157150660#4 157150660#5 157150660#6 157150660#7 157150660#8 157150660#9 157150660#10 157150660#11 157150660#12 157150660#13 157150660#14 157150660#15 157150660#16 -157150665#2 -157150665#0 -486563015#1 -486816946 -486816948#0 -2521535 -153431406#2 -153431406#1 -153431406#0 -34340976#14 -34340976#13 -34340976#12 -34340976#11 -34340976#9 -34340976#7 -34340976#6 -34340976#5 -34340976#4 -34340976#3 -34340976#2 -34340976#1 -34340976#0 22331056#1 22331056#2 22331056#3 22331056#5 22331056#6 22331056#7 22331056#8 22331056#9 22331056#10 22331056#11 34340975#0 34340975#1 34340975#2 34340975#3 34340975#4 22328537#0 22328537#1 22328537#2 22328537#3 22328537#4 81113693#0 81113693#1 -369182823#0 -377329808#1 5107121#0 157149624#2 403212739 -403212739" />
    </vehicle>
    <vehicle color="255, 153, 51" depart="56.84" id="20">
        <route edges="-486568145#2 -486568145#1 144116760#1 144116761 157150667 -157150665#3 -157150665#2 -157150665#0 -486563015#1 -486816946 -486816948#0 -2521535 -153431406#2 -153431406#1 -153431406#0 -34340976#14 -34340976#13 -34340976#12 -34340976#11 -34340976#9 -34340976#7 -34340976#6 -34340976#5 -34340976#4 -34340976#3 -34340976#2 -34340976#1 -34340976#0 -157147524#13 -157147524#12 -157147524#11 -157147524#9 -157147524#8 -157147524#7 -157147524#5 -157147524#4 -157147524#2 -157147524#0 -486563018 486816973 22327902#0 22327902#1 22327902#2 22327902#3 22327902#4 34335064 -144959665 -172675262#1 -172675262#0 -172675260 -171610162#2 -171610162#1 -171610162#0 -11966437#8 -11966437#7 -11966437#5 -11967580#5 11967580#5" />
    </vehicle>
    <vehicle color="255, 153, 51" depart="59.68" id="21">
        <route edges="3994450#1 3994450#2 3994450#3 3994450#4 3994450#5 3994450#6 3994450#7 159269894#1 159269894#2 159269894#3 486816938#1 486816938#2 5107117 -486816932 -132908615#7 -132908615#6 -132908615#5 -132908615#3 -132908615#1 -132908615#0 -34338474#2 -34338474#1 -34338474#0 -486816941#2 -486816941#0 157150665#0 157150665#1 157150665#3 35571978 96400332 96400341 419858869 44369045 421617196 52937670 264221491 326418291 5107172#0 5107172#1 264221488 -145173768 -30032439 -38059362 -217999473 -326418282 -290573638 -45559083 -187388862 -326418284 -326418280 -326418286 -326418281 -96400328 -5107127 5059728 412954649 5059730 412954648#0 412954648#1 4046554#0 4046554#2 4046554#3 96020721#0 96020721#1 398234685 58698097#0 58698097#1 361506385#0 361506385#1 361506385#2 144137432#0 144137432#1 -144137432#1" />
    </vehicle>
    <vehicle color="255, 153, 51" depart="62.53" id="22">
        <route edges="4776674#1 -4776674#1 -4776674#0 -4294652#3 -4294652#2 -4294652#1 144116760#1 144116761 157150667 -157150665#3 -157150665#2 -157150665#0 -486563015#1 -486816946 -486816948#0 -2521535 -153431406#2 -153431406#1 -153431406#0 -34340976#14 -34340976#13 -34340976#12 -34340976#11 -34340976#9 -34340976#7 -34340976#6 -34340976#5 -34340976#4 -34340976#3 -34340976#2 -34340976#1 -34340976#0 -157147524#13 -157147524#12 -157147524#11 -157147524#9 -157147524#8 -157147524#7 -157147524#5 -157147524#4 -157147524#2 -157147524#0 -486563018 486816973 22327902#0 22327902#1 22327902#2 22327902#3 22327902#4 34335064 -144959665 -172675262#1 -172675262#0 -172675260 -171610162#2 -171610162#1 -171610162#0 -345235519#2 -345235519#1 -345235519#0 -196193007#1 -196193007#0 -371961405#3 -371961405#2 -371961405#1 -371961405#0 -132857757#3 -132857757#1 -132857757#0 -132857756#8 -132857756#3 -132857756#2 -27866152 -167978333#11 -167978333#10 167978333#10" />
    </vehicle>
    <vehicle color="255, 153, 51" depart="65.37" id="23">
        <route edges="-4082047#9 -4082047#8 -4082047#7 -4082047#6 -4082047#5 -4082047#4 -4082047#3 -4082047#2 -4082047#1 -4082047#0 157150674#10 15777956 5107172#0 5107172#1 264221488 -145173768 -30032439 -38059362 -217999473 -326418282 -290573638 -45559083 -187388862 -326418284 -326418280 -326418286 -326418281 -96400328 -5107127 5059728 412954649 5059730 412954636#0 412954636#1 -412954610 -38331806#0 421614348 4901993#0 4901993#1 10264302#0 119140949#0 518807824#2 518807824#3" />
    </vehicle>
    <vehicle color="255, 153, 51" depart="68.21" id="24">
        <route edges="486568145#2 -486568145#2 -486568145#1 144116760#1 144116761 96400348 96400332 96400341 419858869 44369045 421617196 52937670 264221491 326418291 5107172#0 5107172#1 264221488 -145173768 -30032439 -38059362 -217999473 -326418282 -290573638 -45559083 -187388862 -326418284 -326418280 -326418286 -326418281 -96400328 -5107127 5059728 412954649 5059730 412954648#0 412954648#1 4046554#0 4046554#2 4046554#3 96020721#0 96020721#1 398234685 398398152 398234683 398398153 58698096#0 58698093#0 58698093#1 37740516#3 144137437#0 146910461 144137433#1 4901998#2 4901999 37740515#1 -37740515#1" />
    </vehicle>
    <vehicle color="255, 51, 153" depart="71.05" id="25">
        <route edges="22331056#5 -22331056#5 -22331056#3 -22331056#2 -22331056#1 34340976#0 34340976#1 34340976#2 34340976#3 34340976#4 34340976#5 34340976#6 34340976#7 34340976#8 34340976#11 34340976#12 34340976#13 34340976#14 153431406#0 153431406#1 153431406#2 2521535 486816948#0 4082064#1 -159190393 5107169 -96400332 -96400348 -144116761 -144116760#1 159269896#0 -8226386#4 -8226386#2 -8226386#1 -8226386#0" />
    </vehicle>
    <vehicle color="102, 179, 255" depart="73.89" id="26">
        <route edges="-371961405#1 371961405#1 371961405#2 371961405#3 196193007#0 196193007#1 196193007#2 345235519#1 345235519#2 -11966437#8 -11966437#7 -11966437#5 -11967580#5 -11967580#4 -11967580#3 -11967580#2" />
    </vehicle>
    <vehicle color="102, 179, 255" depart="76.74" id="27">
        <route edges="-369182824 369182825 466783104#0 221093005 -307570927#3 -307570927#2 -307570927#1 206030314#0 206030314#1 157147523#1 173168679#0 173168683 -34335064 -34335059 -10962242#1 -10962242#0 345311196#2 -10864326#2 -10864326#1 -10864326#0 263015086#0 22325217 -22323598#9 -22323598#8 -22323598#7 -22323598#6 -22323598#5 -22323598#4 -22323598#3 -22323598#1 -22323598#0 319103476#0 319103476#1 319104287#0 319104287#1 319104287#2 319104287#3 319104287#4 319104287#5 -8009283 -132908614#1 -132908614#0 -15777958#1 -15777958#0 159190385 5107173 264221491 326418291 5107172#0 5107172#1 264221488 -145173768 -30032439 -38059362 -217999473 -326418282 -290573638 -45559083 -187388862 -326418284 -326418280 -326418286 -326418281 -96400328 -5107127 5107127 412954624 326418281 326418286 22109176 -46737898 38331791#0" />
    </vehicle>
    <vehicle color="255, 153, 51" depart="82.42" id="29">
        <route edges="19161388#1 -19161388#1 157150674#0 157150674#2 157150674#3 157150674#4 157150674#5 157150674#6 157150674#7 157150674#9 157150674#10 15777956 5107172#0 5107172#1 264221488 -145173768 -30032439 -38059362 -217999473 -326418282 -290573638 -45559083 -187388862 -326418284 -326418280 -326418286 -326418281 -96400328 -5107127 -38059692 -412954635 -412954634 -412954633 -412954632 412954632 412954633 191428860 -216510384 216510384" />
    </vehicle>
    <vehicle color="102, 179, 255" depart="85.26" id="30">
        <route edges="-24245994 24245994 307570933 157147523#0 157147523#1 173168679#0 173168683 -34335064 -34335059 -10962242#1 -10962242#0 345311196#2 -10864326#2 -10864326#1 -10864326#0 263015086#0 22325217 -22323598#9 -22323598#8 -22323598#7 -22323598#6 -22323598#5 -22323598#4 -22323598#3 -22323598#1 -22323598#0 319103476#0 319103476#1 319104287#0 319104287#1 319104287#2 319104287#3 319104287#4 319104287#5 -8009283 -132908614#1 -132908614#0 -15777958#1 -15777958#0 159190385 4082009 -421617196 -44369045 -419858869 -96400341 -96400332 -96400348 -144116761 -144116760#1 4294652#1 4294652#2 4294652#3 4776674#0 4776674#1 4776674#2 61925010#0 61925010#2 -61925010#2" />
    </vehicle>
    <vehicle color="255, 153, 51" depart="88.11" id="31">
        <route edges="-61925010#2 -61925010#0 -4776674#2 -4776674#1 -4776674#0 -4294652#3 -4294652#2 -4294652#1 144116760#1 144116761 96400348 96400332 96400341 419858869 44369045 421617196 52937670 264221491 326418291 5107172#0 5107172#1 264221488 -145173768 -30032439 -38059362 -217999473 -326418282 -290573638 -45559083 -187388862 -326418284 -326418280 -326418286 -326418281 -96400328 -5107127 5059728 412954649 5059730 412954648#0 412954648#1 4046554#0 4046554#2 4046554#3 96020721#0 96020721#1 398234685 398398152 398234683 398398153 58698096#0 58698093#0 58698093#1 37740516#3 144137437#0 146910461 144137433#1 4901998#2 4901999 52381439#0 -52381439#0" />
    </vehicle>
    <vehicle color="255, 153, 51" depart="90.95" id="32">
        <route edges="149102061#2 -149102061#2 -149102061#1 -149102061#0 157150674#0 157150674#2 157150674#3 157150674#4 157150674#5 157150674#6 157150674#7 157150674#9 157150674#10 15777956 264221492 419858870 15777957 15777958#0 15777958#1 132908614#0 132908614#1 132908614#3 132908614#4 132908614#5 132908614#6 132908614#7 132908614#8 -81113692#4 -81113692#3 -81113692#2 22323598#0 22323598#1 22323598#3 22323598#4 22323598#5 22323598#6 22323598#7 22323598#8 22323598#9 -22325217 -263015086#0 10864326#0 10864326#1 10864326#2 345311196#3 345311196#1 10962242#0 10962242#1 22327902#4 34335064 -144959665 -172675262#1 -172675262#0 -172675260 -171610162#2 -171610162#1 -171610162#0 -345235519#2 -345235519#1 -345235519#0 -196193007#1 -196193007#0 -371961405#3 -371961405#2 -371961405#1 -371961405#0 -132857757#3 -132857757#1 -132857757#0 -132857756#8 -132857756#3 -132857756#2 -196193008#0 38526095#0 38526095#1 38526095#2 38526095#3 11966431 -11966402#7 -11966402#5 -11966402#4 -11966402#3 -11966402#2" />
    </vehicle>
    <vehicle color="102, 179, 255" depart="93.79" id="33">
        <route edges="11966414#4 11966414#5 11966414#6 11966414#7 -4046250#2 -4046250#1 -4046250#0 28303350#0 28303350#1 28303350#2 196193010 344843909 196193009 157147523#0 157147523#1 173168679#0 173168683 -34335064 -34335059 -10962242#1 -10962242#0 345311196#2 -10864326#2 -10864326#1 -10864326#0 263015086#0 22325217 -22323598#9 -22323598#8 -22323598#7 -22323598#6 -22323598#5 -22323598#4 -22323598#3 -22323598#1 -22323598#0 319103476#0 319103476#1 319104287#0 319104287#1 319104287#2 319104287#3 319104287#4 319104287#5 -8009283 -132908614#1 -132908614#0 -15777958#1 -15777958#0 159190385 5107173 264221491 187384034 -157150674#10 -157150674#9 -157150674#7 -157150674#6 -157150674#5 -157150674#4 -157150674#3 -157150674#2 -157150674#0 19161388#1 19161388#2 19161388#3 19161388#4 19161388#5 -35777564#4 -35777564#3 -35777564#2 27199200#1 -41210009#0" />
    </vehicle>
    <vehicle color="255, 153, 51" depart="96.63" id="34">
        <route edges="-149102061#5 -149102061#4 -149102061#3 -149102061#2 -149102061#1 -149102061#0 157150674#0 157150674#2 157150674#3 157150674#4 157150674#5 157150674#6 157150674#7 157150674#9 157150674#10 15777956 264221492 419858870 15777957 15777958#0 15777958#1 132908614#0 132908614#1 132908614#3 132908614#4 132908614#5 132908614#6 132908614#7 132908614#8 132908614#9 132908614#10 132908614#13 132908614#14 132908614#15 -157147524#7 -157147524#5 -157147524#4 -157147524#2 -157147524#0 -486563018 -486563014 -22327901#3 -22327901#0 8009313#1 8009313#2 8009313#3 22328011 26007021 26007022#0 26007022#1 26007022#2 26007022#3 26007022#4 26007022#5 307570927#2 307570927#3 -221093005 -466783104#0 -369182824" />
    </vehicle>
    <vehicle color="102, 179, 255" depart="99.47" id="35">
        <route edges="83629678#2 -83629678#2 -83629678#1 -83629678#0 -52381439#3 -52381439#2 -52381439#1 -52381439#0 52381440 4901998#4 144137433#0 -146910461 144137437#1 37740516#1 243092496#0 243092496#1 398398151 58698092#0 58698092#1 -4046554#3 -4046554#2 -4046554#0 -412954611 -412954610 -38331806#0 421614348 4901993#0 4901993#1 10264302#0 10264302#1 10264302#2 10264302#3 10264302#4 421614353 421614349 38331793#0 38331793#1 46737898 46737899 38059694 326418285 217999470 290573638 217999472 217999473 38059362 30032439 145173768 52937669 264221489 419858870 15777957 15777958#0 15777958#1 132908614#0 132908614#1 132908614#3 132908614#4 132908614#5 132908614#6 132908614#7 132908614#8 132908614#9 132908614#10 132908614#13 132908614#14 132908614#15 -157147524#7 -157147524#5 -157147524#4 -157147524#2 -157147524#0 -486563018 -486563014 -22327901#3 -22327901#0 8009313#1 8009313#2 8009313#3 22328011 26007021 26007022#0 26007022#1 26007022#2 26007022#3 26007022#4 26007022#5 307570927#2 307570927#3 -8227799#2" />
    </vehicle>
    <vehicle color="255, 153, 51" depart="102.32" id="36">
        <route edges="8009745#2 -8009745#2 -8009745#1 -8009745#0 -4082047#9 -4082047#8 -4082047#7 -4082047#6 -4082047#5 -4082047#4 -4082047#3 -4082047#2 -4082047#1 -4082047#0 157150674#10 15777956 264221492 419858870 15777957 15777958#0 15777958#1 132908614#0 -22338210#8 -22338210#7 -22338210#6 -22338210#5 -22338210#4 22338210#4" />
    </vehicle>
    <vehicle color="102, 179, 255" depart="105.16" id="37">
        <route edges="38331796#0 38331796#1 38331796#2 38331797#0 38331797#1 38331797#2 38331797#3 421624048 421614354 49201808#0 49201808#1 49201808#2 49201808#3 421614349 38331793#0 38331793#1 46737898 46737899 38059694 326418285 217999470 290573638 217999472 217999473 38059362 30032439 145173768 52937669 264221489 419858870 15777957 15777958#0 15777958#1 132908614#0 132908614#1 132908614#3 132908614#4 132908614#5 132908614#6 132908614#7 132908614#8 -81113692#4 -81113692#3 -81113692#2 22323598#0 22323598#1 22323598#3 22323598#4 22323598#5 22323598#6 22323598#7 22323598#8 22323598#9 -22325217 -263015086#0 10864326#0 10864326#1 10864326#2 345311196#3 345311196#1 10962242#0 10962242#1 22327902#4 34335064 -144959665 -172675262#1 -172675262#0 -172675260 -171610162#2 -171610162#1 -171610162#0 -345235519#2 -345235519#1 -345235519#0 -196193007#1 -196193007#0 -371961405#3 -371961405#2 -371961405#1 -371961405#0 -132857757#3 -132857757#1 -132857757#0 -132857756#8 -132857756#3 -132857756#2 -196193008#0 38526095#0 -31427683#2 31427683#2" />
    </vehicle>
    <vehicle color="102, 179, 255" depart="108.00" id="38">
        <route edges="-4046250#3 -4046250#2 -4046250#1 -4046250#0 28303350#0 28303350#1 28303350#2 196193010 344843909 196193009 157147523#0 157147523#1 173168679#0 173168683 -34335064 -34335059 -10962242#1 -10962242#0 345311196#2 -10864326#2 -10864326#1 -10864326#0 263015086#0 22325217 -22323598#9 -22323598#8 -22323598#7" />
    </vehicle>
    <vehicle color="255, 51, 153" depart="110.84" id="39">
        <route edges="403212739 -403212739 -157149624#2 377329807#1 377329808#1 369182823#0 -81113693#1 -81113693#0 -22328537#4 -22328537#3 -22328537#2 -22328537#1 -22328537#0 -34340975#4 -34340975#3 -34340975#2 -34340975#1 -34340975#0 -22331056#11 -22331056#10 -22331056#9 -22331056#8 -22331056#7 -22331056#6 -22331056#5 -22331056#3 -22331056#2 -22331056#1 -81113692#7 -81113692#6 -81113692#5 -132908614#8 -132908614#7 -132908614#6 -132908614#5 -132908614#4 -132908614#3 -132908614#1 -132908614#0 -15777958#1 -15777958#0 159190385 5107173 264221491 326418291 5107172#0 5107172#1 264221488 -145173768 -30032439 -38059362 -217999473 -326418282 -290573638 -45559083 -187388862 -326418284 -326418280 -326418286 -326418281 -96400328 -5107127 5059728 412954649 5059730 412954636#0 412954636#1 -412954610 -38331806#0 421614348 4901993#0 4901993#1 10264302#0 10264302#1 10264302#2 10264302#3 10264302#4" />
    </vehicle>
    <vehicle color="255, 153, 51" depart="113.68" id="40">
        <route edges="19195949#1 -19195949#1 -441725226#1 -441725226#0 19195755#0 -135266443#3 -135266443#2 -135266443#1 22337654#2 22328914#0 22328914#1 22328914#2 22328914#3 22328198#0 22328198#1 81113693#0 81113693#1 -369182823#0 -377329808#1 5107121#0 -157149624#0 -345235527#2 -345235527#1 -307570927#3 -307570927#2 -307570927#1 -307570927#0 -157146830 -344843906 222143269 28303350#2" />
    </vehicle>
    <vehicle color="102, 179, 255" depart="116.53" id="41">
        <route edges="-52381439#3 -52381439#2 -52381439#1 -52381439#0 52381440 4901998#4 144137433#0 -146910461 144137437#1 37740516#1 243092496#0 243092496#1 398398151 58698092#0 58698092#1 -4046554#3 -4046554#2 -4046554#0 -412954611 -412954610 -38331806#0 421614348 4901993#0 4901993#1 10264302#0 10264302#1 10264302#2 10264302#3 10264302#4 421614353 421614349 38331793#0 38331793#1 46737898 46737899 38059694 326418285 217999470 290573638 217999472 217999473 38059362 30032439 145173768 52937669 264221489 419858870 264221490 4082009 -421617196 -44369045 -419858869 -96400341 -96400332 -96400348 -144116761 -144116760#1 159269896#0 -8226386#4 -8226386#2 -8226386#1" />
    </vehicle>
    <vehicle color="255, 153, 51" depart="119.37" id="42">
        <route edges="-2210065#0 3994433#8 3994433#9 3994433#10 3994433#12 157150665#0 157150665#1 -157150660#16 -157150660#15 -157150660#14 1678518#0 1678518#1 1678518#2 1678518#3 1678518#4 1678518#5 1678518#6 1678518#7 1678518#8 8009745#0 8009745#1 8009745#2 8009745#3 8009745#4 8009745#5 8009745#6 8009745#7" />
    </vehicle>
    <vehicle color="102, 179, 255" depart="122.21" id="43">
        <route edges="31427705#9 431553656#0 431553656#2 -11966413#0 371961405#0 371961405#1 371961405#2 371961405#3 196193007#0 196193007#1 196193007#2 345235519#1 345235519#2 171610162#0 171610162#1 171610162#2 171610162#3 172675262#0 172675262#1 144959665 -34335064 -34335059 -22327902#3 -22327902#2 -22327902#1 -22327902#0 -486816973 486563018 157147524#0 157147524#2 157147524#4 157147524#5 157147524#7 157147524#8 157147524#9 157147524#11 157147524#12 157147524#13 34340976#0 34340976#1 34340976#2 34340976#3 34340976#4 34340976#5 34340976#6 34340976#7 34340976#8 34340976#11 34340976#12 34340976#13 34340976#14 153431406#0 153431406#1 153431406#2 2521535 486816948#0 486816946 486816942 486816941#0 486816941#1 34338474#0 34338474#1 34338474#2 132908615#0 132908615#1 132908615#2 132908615#5 132908615#6 132908615#7 132908615#8 -5107117 -486816938#2 -486816938#1 -486816938#0 -159269894#2 -159269894#1 -3994450#7 -3994450#6 -211918339 -172496994#1 -172496994#0" />
    </vehicle>
    <vehicle color="255, 153, 51" depart="127.89" id="45">
        <route edges="157151822#1 -157151822#1 -157151822#0 -159269896#1 -159269896#0 144116760#1 144116761 96400348 96400332 96400341 419858869 44369045 421617196 52937670 264221491 326418291 5107172#0 5107172#1 264221488 -145173768 -30032439 -38059362 -217999473 -326418282 -290573638 -45559083 -187388862 -326418284 -326418280 -326418286 -326418281 -96400328 -5107127 5059728 412954649 5059730 412954648#0 412954648#1 4046554#0 4046554#2 4046554#3 96020721#0 96020721#1 398234685 398398152 398234683 398398153 58698096#0 58698093#0 58698093#1 37740516#3 144137437#0 146910461 144137433#1 4901998#2 4901998#3 4901998#4 144137433#0" />
    </vehicle>
    <vehicle color="102, 179, 255" depart="130.74" id="46">
        <route edges="96020721#1 398234685 398398152 398234683 398398153 58698096#0 58698096#1 398398151 58698092#0 58698092#1 -4046554#3 -4046554#2 -4046554#0 -412954611 -412954610 -38331806#0 421614348 4901993#0 4901993#1 10264302#0 10264302#1 10264302#2 10264302#3 10264302#4 421614353 421614349 38331793#0 38331793#1 46737898 46737899 38059694 326418285 217999470 290573638 217999472 217999473 38059362 30032439 145173768 52937669 264221489 419858870 15777957 15777958#0 15777958#1 132908614#0 132908614#1 132908614#3 132908614#4 132908614#5 132908614#6 132908614#7 132908614#8 -81113692#4 -81113692#3 -81113692#2 22323598#0 22323598#1 22323598#3 22323598#4 22323598#5 22323598#6 22323598#7 22323598#8 22323598#9 -22325217 -263015086#0 10864326#0 10864326#1 10864326#2 345311196#3 345311196#1 10962242#0 10962242#1 22327902#4 34335064 -144959665 -172675262#1 -172675262#0 -172675260 -171610162#2 -171610162#1 -171610162#0 -345235519#2 -345235519#1 -345235519#0 -196193007#1 -196193007#0 -371961405#3 -371961405#2 -371961405#1 -371961405#0 -132857757#3 -132857757#1 -132857757#0 -132857756#8 -132857756#3 -132857756#2 -196193008#0 -196193012#7 -196193012#6 -196193012#4 -196193012#3" />
    </vehicle>
    <vehicle color="102, 179, 255" depart="133.58" id="47">
        <route edges="4045955#1 -4045955#1 -4045955#0 -61925002#2 -61925002#0 -61925010#3 -61925010#2 61925010#2" />
    </vehicle>
    <vehicle color="255, 153, 51" depart="136.42" id="48">
        <route edges="5107111#3 -5107111#3 -5107111#2 -5107111#1 -5107111#0 -4294652#1 144116760#1 144116761 157150667 -157150665#3 -157150665#2 -157150665#0 -486563015#1 -486816946 -486816948#0 -2521535 -153431406#2 -153431406#1 -153431406#0 -34340976#14 -34340976#13 -34340976#12 -34340976#11 -34340976#9 -34340976#7 -34340976#6 -34340976#5 -34340976#4 -34340976#3 -34340976#2 -34340976#1 -34340976#0 -157147524#13 -157147524#12 -157147524#11 -157147524#9 -157147524#8 -157147524#7 -157147524#5 -157147524#4 -157147524#2 -157147524#0 -486563018 486816973 22327902#0 22327902#1 22327902#2 22327902#3 22327902#4 34335064 -144959665 -172675262#1 -172675262#0 -172675260 -171610162#2 -171610162#1 -171610162#0 -345235519#2 -345235519#1 -345235519#0 -196193007#1 -196193007#0 -371961405#3 -371961405#2 -371961405#1 -371961405#0 -132857757#3 -132857757#1 -132857757#0 -132857756#8 -132857756#3 -132857756#2 -27866152 -167978333#11 -167978333#10 -167978333#7 -167978333#6 -167978333#5 -167978333#4 -167978333#3 167978333#3" />
    </vehicle>
    <vehicle color="102, 179, 255" depart="139.26" id="49">
        <route edges="-11966407#1 -11966407#0 31427683#8 31427683#9 132857757#0 132857757#1 132857757#3 11966413#0 11966413#1 11966413#2 -11966413#2" />
    </vehicle>
    <vehicle color="255, 153, 51" depart="142.11" id="50">
        <route edges="477543784#2 486563017 159269894#0 159269894#1 159269894#2 159269894#3 486816938#1 486816938#2 5107117 -486816932 -132908615#7 -132908615#6 -132908615#5 -132908615#3 -132908615#1 -132908615#0 -34338474#2 -34338474#1 -34338474#0 -486816941#2 -486816941#0 -486563015#1 -486816946 -486816948#0 -2521535 -153431406#2 -153431406#1 -153431406#0 -34340976#14 -34340976#13 -34340976#12 -34340976#11 -34340976#9 -34340976#7 -34340976#6 -34340976#5 -34340976#4 -34340976#3 -34340976#2 -34340976#1 -34340976#0 -157147524#13 -157147524#12 -157147524#11 -157147524#9 -157147524#8 -157147524#7 -157147524#5 -157147524#4 -157147524#2 -157147524#0 -486563018 -486563014 -22327901#3 -22327901#0 8009313#1 8009313#2 8009313#3 22328011 26007021 26007022#0 26007022#1 26007022#2 26007022#3" />
    </vehicle>
    <vehicle color="255, 153, 51" depart="150.63" id="53">