<?xml version="1.0" encoding="UTF-8"?>

<!-- generated on Sun Jul 14 12:42:15 2019 by Eclipse SUMO duarouter Version 1.2.0
<configuration xmlns:xsi="http://www.w3.org/2001/XMLSchema-instance" xsi:noNamespaceSchemaLocation="http://sumo.dlr.de/xsd/duarouterConfiguration.xsd">

    <input>
        <net-file value="../data/input-simulation/kirchheim-street-names.net.xml"/>
        <route-files value="../data/input-simulation/scenario2.trips.xml"/>
    </input>

    <output>
        <output-file value="../data/input-simulation/scenario2.trips.xml.tmp"/>
        <write-trips value="true"/>
    </output>

    <time>
        <begin value="0"/>
        <end value="10800.0"/>
    </time>

    <report>
        <no-warnings value="true"/>
        <ignore-errors value="true"/>
        <no-step-log value="true"/>
    </report>

</configuration>
-->

<routes xmlns:xsi="http://www.w3.org/2001/XMLSchema-instance" xsi:noNamespaceSchemaLocation="http://sumo.dlr.de/xsd/routes_file.xsd">
    <trip id="1" depart="2.84" from="-27444291" to="5059728"/>
    <trip id="2" depart="5.68" from="412954648#1" to="-5107111#2"/>
    <trip id="3" depart="8.53" from="22338220" to="-78766899#1"/>
    <trip id="6" depart="17.05" from="4776674#2" to="25921294"/>
    <trip id="8" depart="22.74" from="-36240523#2" to="19798104"/>
    <trip id="9" depart="25.58" from="167978333#16" to="11966412#1"/>
    <trip id="10" depart="28.42" from="-412618715" to="412954633"/>
    <trip id="11" depart="31.26" from="157148586#3" to="-77049898#6"/>
    <trip id="13" depart="36.95" from="167978333#5" to="-31427705#0"/>
    <trip id="14" depart="39.79" from="466783104#0" to="-149102061#8"/>
    <trip id="15" depart="42.63" from="-486568145#3" to="10864326#0"/>
    <trip id="16" depart="45.47" from="177851182#5" to="-144137427#1"/>
    <trip id="17" depart="48.32" from="22328198#0" to="345235527#3"/>
    <trip id="18" depart="51.16" from="8226386#4" to="159269897#0"/>
    <trip id="19" depart="54.00" from="-157150660#0" to="-403212739"/>
    <trip id="20" depart="56.84" from="-486568145#2" to="11967580#5"/>
    <trip id="21" depart="59.68" from="3994450#1" to="-144137432#1"/>
    <trip id="22" depart="62.53" from="4776674#1" to="167978333#10"/>
    <trip id="23" depart="65.37" from="-4082047#9" to="518807824#3"/>
    <trip id="24" depart="68.21" from="486568145#2" to="-37740515#1"/>
    <trip id="25" depart="71.05" from="22331056#5" to="-8226386#0"/>
    <trip id="26" depart="73.89" from="-371961405#1" to="-11967580#2"/>
    <trip id="27" depart="76.74" from="-369182824" to="38331791#0"/>
    <trip id="29" depart="82.42" from="19161388#1" to="216510384"/>
    <trip id="30" depart="85.26" from="-24245994" to="-61925010#2"/>
    <trip id="31" depart="88.11" from="-61925010#2" to="-52381439#0"/>
    <trip id="32" depart="90.95" from="149102061#2" to="-11966402#2"/>
    <trip id="33" depart="93.79" from="11966414#4" to="-41210009#0"/>
    <trip id="34" depart="96.63" from="-149102061#5" to="-369182824"/>
    <trip id="35" depart="99.47" from="83629678#2" to="-8227799#2"/>
    <trip id="36" depart="102.32" from="8009745#2" to="22338210#4"/>
    <trip id="37" depart="105.16" from="38331796#0" to="31427683#2"/>
    <trip id="38" depart="108.00" from="-4046250#3" to="-22323598#7"/>
    <trip id="39" depart="110.84" from="403212739" to="10264302#4"/>
    <trip id="40" depart="113.68" from="19195949#1" to="28303350#2"/>
    <trip id="41" depart="116.53" from="-52381439#3" to="-8226386#1"/>
    <trip id="42" depart="119.37" from="-2210065#0" to="8009745#7"/>
    <trip id="43" depart="122.21" from="31427705#9" to="-172496994#0"/>
    <trip id="45" depart="127.89" from="157151822#1" to="144137433#0"/>
    <trip id="46" depart="130.74" from="96020721#1" to="-196193012#3"/>
    <trip id="47" depart="133.58" from="4045955#1" to="61925010#2"/>
    <trip id="48" depart="136.42" from="5107111#3" to="167978333#3"/>
    <trip id="49" depart="139.26" from="-11966407#1" to="-11966413#2"/>
    <trip id="50" depart="142.11" from="477543784#2" to="26007022#3"/>
    <trip id="53" depart="150.63" from="-486568146#1" to="37740516#2"/>
    <trip id="56" depart="159.16" from="361506385#4" to="58698092#0"/>
    <trip id="58" depart="164.84" from="-122401181" to="58683699"/>
    <trip id="60" depart="170.53" from="-187380784#0" to="-3994433#11"/>
    <trip id="61" depart="173.37" from="-4776674#0" to="-159269896#0"/>
    <trip id="62" depart="176.21" from="-377325783#0" to="61925010#2"/>
    <trip id="64" depart="181.89" from="-157151826#0" to="-159269898#1"/>
    <trip id="65" depart="184.74" from="-132908614#6" to="-4046933#1"/>
    <trip id="66" depart="187.58" from="3994450#4" to="-196193007#1"/>
    <trip id="67" depart="190.42" from="-34340977#2" to="-157149627"/>
    <trip id="69" depart="196.11" from="-216226408" to="-196193010"/>
    <trip id="70" depart="198.95" from="52937669" to="222143269"/>
    <trip id="71" depart="201.79" from="-157149627" to="-77049898#8"/>
    <trip id="73" depart="207.47" from="-4776674#0" to="-157151822#0"/>
    <trip id="74" depart="210.32" from="431553656#0" to="159269897#0"/>
    <trip id="75" depart="213.16" from="-132857756#3" to="63067505"/>
    <trip id="76" depart="216.00" from="157150674#7" to="-361506385#6"/>
    <trip id="77" depart="218.84" from="486568145#5" to="177851184"/>
    <trip id="78" depart="221.68" from="157151826#2" to="58698092#1"/>
    <trip id="79" depart="224.53" from="22328522#12" to="-167978333#6"/>
    <trip id="80" depart="227.37" from="41210241#1" to="-172496991#1"/>
    <trip id="81" depart="230.21" from="-22331056#2" to="-377325783#0"/>
    <trip id="82" depart="233.05" from="-159269896#1" to="-216510384"/>
    <trip id="83" depart="235.89" from="31427683#3" to="-171610162#2"/>
    <trip id="84" depart="238.74" from="-10505524#1" to="-4082047#1"/>
    <trip id="85" depart="241.58" from="-31427683#2" to="596915961#6"/>
    <trip id="86" depart="244.42" from="157149627" to="144959665"/>
    <trip id="87" depart="247.26" from="486563017" to="-167801604#7"/>
    <trip id="88" depart="250.11" from="-159269898#0" to="341128265#4"/>
    <trip id="90" depart="255.79" from="-403212739" to="-345235519#0"/>
    <trip id="91" depart="258.63" from="157150660#1" to="421614349"/>
    <trip id="92" depart="261.47" from="-31427683#0" to="119140949#0"/>
    <trip id="93" depart="264.32" from="38526008#3" to="-27444291"/>
    <trip id="94" depart="267.16" from="-22328914#5" to="-11966402#3"/>
    <trip id="95" depart="270.00" from="-35580594" to="-132908623"/>
    <trip id="97" depart="275.68" from="-4776674#2" to="167978333#3"/>
    <trip id="98" depart="278.53" from="-157151822#0" to="-177851184"/>
    <trip id="99" depart="281.37" from="-4045955#0" to="8227799#2"/>
    <trip id="100" depart="284.21" from="22338210#5" to="11967580#2"/>
    <trip id="101" depart="287.05" from="-403212739" to="196193006#11"/>
    <trip id="102" depart="289.89" from="-61925002#2" to="466783104#0"/>
    <trip id="103" depart="292.74" from="4776992#1" to="38331801#0"/>
    <trip id="104" depart="295.58" from="-172026612#1" to="-22328205#5"/>
    <trip id="106" depart="301.26" from="34340976#0" to="63067505"/>
    <trip id="107" depart="304.11" from="4776674#4" to="-172675262#0"/>
    <trip id="110" depart="312.63" from="22328853#0" to="-263060155#7"/>
    <trip id="111" depart="315.47" from="22328847#1" to="-159269898#0"/>
    <trip id="112" depart="318.32" from="172496991#0" to="135266443#2"/>
    <trip id="113" depart="321.16" from="-144116760#1" to="-19195949#1"/>
    <trip id="114" depart="324.00" from="-486816937" to="11966437#0"/>
    <trip id="115" depart="326.84" from="-4082047#4" to="26007022#4"/>
    <trip id="118" depart="335.37" from="-441725226#1" to="157150660#8"/>
    <trip id="120" depart="341.05" from="-157151824#1" to="-4776674#2"/>
    <trip id="121" depart="343.89" from="-333348016#1" to="307570927#0"/>
    <trip id="122" depart="346.74" from="4082047#8" to="11967580#1"/>
    <trip id="123" depart="349.58" from="38526008#3" to="196193008#0"/>
    <trip id="124" depart="352.42" from="-35777564#0" to="11966414#1"/>
    <trip id="126" depart="358.11" from="-518807821" to="341128265#1"/>
    <trip id="127" depart="360.95" from="35165711" to="-157150674#5"/>
    <trip id="128" depart="363.79" from="-22323598#3" to="11966437#5"/>
    <trip id="129" depart="366.63" from="-132908615#0" to="38331791#0"/>
    <trip id="131" depart="372.32" from="-196193012#6" to="-35580594"/>
    <trip id="132" depart="375.16" from="-211364287" to="-167978333#7"/>
    <trip id="134" depart="380.84" from="-157149627" to="-22328910#4"/>
    <trip id="136" depart="386.53" from="157148586#3" to="-107103752#1"/>
    <trip id="137" depart="389.37" from="96400348" to="-11966407#0"/>
    <trip id="138" depart="392.21" from="-11966414#6" to="-146910461"/>
    <trip id="139" depart="395.05" from="-8009313#3" to="-477543784#1"/>
    <trip id="141" depart="400.74" from="-11007576#0" to="-45559083"/>
    <trip id="142" depart="403.58" from="-22328914#1" to="-486568146#1"/>
    <trip id="143" depart="406.42" from="-119140950#0" to="-25921301#1"/>
    <trip id="144" depart="409.26" from="-4776992#6" to="8226386#1"/>
    <trip id="145" depart="412.11" from="3994450#0" to="-26007022#1"/>
    <trip id="146" depart="414.95" from="-22331056#8" to="-344843906"/>
    <trip id="148" depart="420.63" from="-167978333#1" to="-10965170#4"/>
    <trip id="149" depart="423.47" from="11966417#3" to="-25921301#1"/>
    <trip id="151" depart="429.16" from="37740516#2" to="-144116760#1"/>
    <trip id="153" depart="434.84" from="-4045955#0" to="-38331803"/>
    <trip id="154" depart="437.68" from="486568145#4" to="22338211#4"/>
    <trip id="155" depart="440.53" from="466783103" to="38526008#9"/>
    <trip id="157" depart="446.21" from="-403212739" to="-196193007#0"/>
    <trip id="158" depart="449.05" from="187380784#1" to="-171610162#0"/>
    <trip id="159" depart="451.89" from="-345311200#0" to="-412954635"/>
    <trip id="160" depart="454.74" from="4045955#0" to="-77049898#3"/>
    <trip id="161" depart="457.58" from="-466783104#0" to="8226386#4"/>
    <trip id="163" depart="463.26" from="-24245994" to="-5107111#2"/>
    <trip id="164" depart="466.11" from="22328914#5" to="-171610162#0"/>
    <trip id="165" depart="468.95" from="-466783104#0" to="-157147523#1"/>
    <trip id="166" depart="471.79" from="122401180" to="159269898#1"/>
    <trip id="167" depart="474.63" from="-10963550#0" to="486568146#1"/>
    <trip id="168" depart="477.47" from="466783103" to="26007022#0"/>
    <trip id="169" depart="480.32" from="-4046580#1" to="-17749020#1"/>
    <trip id="170" depart="483.16" from="-466783104#0" to="180259843#1"/>
    <trip id="171" depart="486.00" from="36240523#1" to="596915961#4"/>
    <trip id="172" depart="488.84" from="-19195949#1" to="-167978333#10"/>
    <trip id="173" depart="491.68" from="19195949#1" to="-412618715"/>
    <trip id="174" depart="494.53" from="-157152190#4" to="-157152190#1"/>
    <trip id="175" depart="497.37" from="-132908615#6" to="36996487#0"/>
    <trip id="176" depart="500.21" from="-3994433#8" to="-170948390#0"/>
    <trip id="177" depart="503.05" from="-10966620#2" to="22109176"/>
    <trip id="180" depart="511.58" from="412954635" to="177850794#0"/>
    <trip id="181" depart="514.42" from="15777956" to="-171610162#0"/>
    <trip id="182" depart="517.26" from="211364287" to="22328914#0"/>
    <trip id="183" depart="520.11" from="61925002#2" to="-11966437#5"/>
    <trip id="184" depart="522.95" from="157150660#9" to="-61925010#2"/>
    <trip id="185" depart="525.79" from="22328522#4" to="8227799#2"/>
    <trip id="186" depart="528.63" from="-157149627" to="11966437#7"/>
    <trip id="187" depart="531.47" from="-367696#3" to="518807824#3"/>
    <trip id="188" depart="534.32" from="11966437#3" to="-4776674#3"/>
    <trip id="189" depart="537.16" from="-4776904#1" to="3994454#2"/>
    <trip id="191" depart="542.84" from="-486568145#2" to="-371961405#2"/>
    <trip id="193" depart="548.53" from="-4734923#0" to="307570927#1"/>
    <trip id="195" depart="554.21" from="-157148579#1" to="159269895#1"/>
    <trip id="196" depart="557.05" from="486816942" to="8226386#2"/>
    <trip id="197" depart="559.89" from="-177851181" to="38331806#0"/>
    <trip id="199" depart="565.58" from="-10864326#0" to="61925002#2"/>
    <trip id="201" depart="571.26" from="-27444291" to="11967580#3"/>
    <trip id="203" depart="576.95" from="177850794#0" to="49201848#1"/>
    <trip id="204" depart="579.79" from="-61816454" to="4776674#3"/>
    <trip id="206" depart="585.47" from="-22323599#0" to="-518807824#3"/>
    <trip id="207" depart="588.32" from="4294652#2" to="8227799#0"/>
    <trip id="208" depart="591.16" from="-41210241#2" to="35165735"/>
    <trip id="209" depart="594.00" from="-157147524#7" to="-362226760#5"/>
    <trip id="210" depart="596.84" from="-177851184" to="-5107111#3"/>
    <trip id="213" depart="605.37" from="159269896#1" to="-77049898#7"/>
    <trip id="214" depart="608.21" from="4045955#1" to="31427705#9"/>
    <trip id="215" depart="611.05" from="-4045955#0" to="180259843#0"/>
    <trip id="216" depart="613.89" from="157150665#0" to="-37740515#1"/>
    <trip id="217" depart="616.74" from="172496991#2" to="5059726"/>
    <trip id="218" depart="619.58" from="-5107174#2" to="307570927#3"/>
    <trip id="219" depart="622.42" from="-19195755#1" to="-167801604#7"/>
    <trip id="220" depart="625.26" from="-8226386#4" to="4294652#2"/>
    <trip id="221" depart="628.11" from="403212739" to="-22328909"/>
    <trip id="222" depart="630.95" from="421614348" to="206030314#0"/>
    <trip id="223" depart="633.79" from="-24245994" to="26007022#2"/>
    <trip id="224" depart="636.63" from="22328205#0" to="52381441#3"/>
    <trip id="226" depart="642.32" from="4045955#1" to="167978333#6"/>
    <trip id="227" depart="645.16" from="-369182824" to="62143075#0"/>
    <trip id="228" depart="648.00" from="-157148575#2" to="307570927#1"/>
    <trip id="232" depart="659.37" from="169445058" to="157152190#2"/>
    <trip id="233" depart="662.21" from="369182825" to="-22328004#0"/>
    <trip id="234" depart="665.05" from="-171610162#0" to="19161388#7"/>
    <trip id="235" depart="667.89" from="-53632597" to="345235519#1"/>
    <trip id="237" depart="673.58" from="-61925002#2" to="157147523#2"/>
    <trip id="239" depart="679.26" from="157149992#9" to="-8274069#2"/>
    <trip id="241" depart="684.95" from="3994460#2" to="-10962620#1"/>
    <trip id="242" depart="687.79" from="-34340973#3" to="8227799#2"/>
    <trip id="243" depart="690.63" from="-2210065#1" to="-221093011"/>
    <trip id="244" depart="693.47" from="412618719#0" to="8226386#2"/>
    <trip id="245" depart="696.32" from="-22327902#3" to="11966403#0"/>
    <trip id="246" depart="699.16" from="-180259843#0" to="486563017"/>
    <trip id="247" depart="702.00" from="-10962814#0" to="-61925010#3"/>
    <trip id="248" depart="704.84" from="-61925010#2" to="11967580#0"/>
    <trip id="249" depart="707.68" from="268268095#1" to="196193007#2"/>
    <trip id="250" depart="710.53" from="596915961#7" to="11966414#4"/>
    <trip id="251" depart="713.37" from="-34340975#1" to="11966414#1"/>
    <trip id="252" depart="716.21" from="-157149627" to="-180259843#0"/>
    <trip id="253" depart="719.05" from="4046933#1" to="122401180"/>
    <trip id="254" depart="721.89" from="243092496#1" to="344843909"/>
    <trip id="255" depart="724.74" from="157151826#1" to="159269896#1"/>
    <trip id="256" depart="727.58" from="130874151" to="-11966416#8"/>
    <trip id="260" depart="738.95" from="421614357" to="-441725226#0"/>
    <trip id="262" depart="744.63" from="-22338212#2" to="-52381439#0"/>
    <trip id="263" depart="747.47" from="486568146#0" to="4045955#0"/>
    <trip id="264" depart="750.32" from="-10962242#1" to="-61925010#2"/>
    <trip id="265" depart="753.16" from="-78346874#0" to="17749018#1"/>
    <trip id="266" depart="756.00" from="-135266443#0" to="-171610162#1"/>
    <trip id="267" depart="758.84" from="167978333#1" to="-486568146#0"/>
    <trip id="268" depart="761.68" from="34338474#1" to="345235519#1"/>
    <trip id="269" depart="764.53" from="-486568145#1" to="159269895#0"/>
    <trip id="270" depart="767.37" from="22323598#6" to="157151822#0"/>
    <trip id="271" depart="770.21" from="-41213181#2" to="486568145#4"/>
    <trip id="272" depart="773.05" from="403212739" to="63067505"/>
    <trip id="274" depart="778.74" from="-27444291" to="-345235527#1"/>
    <trip id="277" depart="787.26" from="486816938#2" to="-26007022#3"/>
    <trip id="278" depart="790.11" from="-211364287" to="11967580#5"/>
    <trip id="280" depart="795.79" from="475117917#4" to="-3994460#2"/>
    <trip id="281" depart="798.63" from="377325783#1" to="122401180"/>
    <trip id="282" depart="801.47" from="19161388#2" to="-22337656#6"/>
    <trip id="284" depart="807.16" from="-132908615#6" to="157147523#2"/>
    <trip id="287" depart="815.68" from="-177851184" to="-11967580#1"/>
    <trip id="288" depart="818.53" from="-211918339" to="11966437#1"/>
    <trip id="289" depart="821.37" from="-61925002#2" to="-11966437#1"/>
    <trip id="291" depart="827.05" from="157150670#1" to="477543784#2"/>
    <trip id="292" depart="829.89" from="8274069#2" to="-132857757#3"/>
    <trip id="293" depart="832.74" from="31427683#6" to="-34340976#2"/>
    <trip id="295" depart="838.42" from="177850794#1" to="-596915961#5"/>
    <trip id="296" depart="841.26" from="362226760#6" to="-486568145#3"/>
    <trip id="297" depart="844.11" from="10964113#1" to="-22338211#7"/>
    <trip id="298" depart="846.95" from="159269898#1" to="-41213181#3"/>
    <trip id="299" depart="849.79" from="-11966402#1" to="22328522#5"/>
    <trip id="300" depart="852.63" from="159269898#1" to="-157147523#0"/>
    <trip id="301" depart="855.47" from="-38526008#1" to="-31427705#1"/>
    <trip id="302" depart="858.32" from="341128265#0" to="34340977#0"/>
    <trip id="303" depart="861.16" from="-4045955#1" to="165385794"/>
    <trip id="304" depart="864.00" from="4776819#0" to="398398153"/>
    <trip id="305" depart="866.84" from="157149627" to="5107111#0"/>
    <trip id="306" depart="869.68" from="486568145#3" to="157150674#9"/>
    <trip id="307" depart="872.53" from="238896280#0" to="25921301#1"/>
    <trip id="308" depart="875.37" from="-19161388#5" to="-22328913#0"/>
    <trip id="309" depart="878.21" from="4776992#7" to="11966437#7"/>
    <trip id="310" depart="881.05" from="-8226386#1" to="-11966402#4"/>
    <trip id="311" depart="883.89" from="-22323598#4" to="41210009#1"/>
    <trip id="312" depart="886.74" from="-211364287" to="-345235527#1"/>
    <trip id="313" depart="889.58" from="-41210012#1" to="11966402#5"/>
    <trip id="315" depart="895.26" from="-4776674#0" to="5059730"/>
    <trip id="316" depart="898.11" from="22338212#3" to="167801604#7"/>
    <trip id="317" depart="900.95" from="-172496994#1" to="159269898#1"/>
    <trip id="319" depart="906.63" from="-35580594" to="31427705#5"/>
    <trip id="320" depart="909.47" from="11966432#3" to="-268268082#0"/>
    <trip id="321" depart="912.32" from="-81113692#6" to="38526008#9"/>
    <trip id="322" depart="915.16" from="-172496991#2" to="157150705#1"/>
    <trip id="325" depart="923.68" from="5107111#2" to="-157150656#12"/>
    <trip id="327" depart="929.37" from="268268087#1" to="-26007022#1"/>
    <trip id="328" depart="932.21" from="4294652#3" to="-177850794#0"/>
    <trip id="329" depart="935.05" from="-157150670#6" to="-157151824#0"/>
    <trip id="330" depart="937.89" from="-326418286" to="421624047"/>
    <trip id="331" depart="940.74" from="486568145#2" to="-4046580#0"/>
    <trip id="332" depart="943.58" from="122401180" to="-157149627"/>
    <trip id="333" depart="946.42" from="466783104#1" to="-46737898"/>
    <trip id="334" depart="949.26" from="61925010#2" to="167978333#16"/>
    <trip id="336" depart="954.95" from="-27444291" to="172675295#1"/>
    <trip id="338" depart="960.63" from="-412954648#0" to="421624048"/>
    <trip id="339" depart="963.47" from="4776755" to="177851182#5"/>
    <trip id="340" depart="966.32" from="58683699" to="486568145#5"/>
    <trip id="341" depart="969.16" from="341128265#1" to="-157151826#2"/>
    <trip id="342" depart="972.00" from="-475117917#4" to="4082047#4"/>
    <trip id="344" depart="977.68" from="341128265#5" to="-25921301#0"/>
    <trip id="348" depart="989.05" from="-4046250#4" to="421614357"/>
    <trip id="349" depart="991.89" from="466783104#0" to="149102061#11"/>
    <trip id="351" depart="997.58" from="-4776674#4" to="144137432#1"/>
    <trip id="352" depart="1000.42" from="-10965854#8" to="196193012#4"/>
    <trip id="353" depart="1003.26" from="-61968766" to="-26007022#0"/>
    <trip id="354" depart="1006.11" from="-466783103" to="-17749020#1"/>
    <trip id="355" depart="1008.95" from="167801604#3" to="-11966437#4"/>
    <trip id="356" depart="1011.79" from="-144116760#1" to="157151824#1"/>
    <trip id="358" depart="1017.47" from="-167801604#5" to="25921294"/>
    <trip id="359" depart="1020.32" from="486568146#0" to="171610162#1"/>
    <trip id="360" depart="1023.16" from="412618715" to="-11967580#3"/>
    <trip id="361" depart="1026.00" from="-187380784#1" to="477543784#2"/>
    <trip id="362" depart="1028.84" from="-3994433#0" to="-486568146#0"/>
    <trip id="363" depart="1031.68" from="-19161388#6" to="-11966410#0"/>
    <trip id="364" depart="1034.53" from="216226407#1" to="-182748225"/>
    <trip id="365" depart="1037.37" from="177851182#5" to="-345235519#2"/>
    <trip id="366" depart="1040.21" from="22337654#0" to="-36996485#0"/>
    <trip id="368" depart="1045.89" from="-196193012#0" to="-11966413#1"/>
    <trip id="369" depart="1048.74" from="-37740515#0" to="-8226386#2"/>
    <trip id="370" depart="1051.58" from="81479405#0" to="11966437#8"/>
    <trip id="371" depart="1054.42" from="-486568145#3" to="-83629678#2"/>
    <trip id="372" depart="1057.26" from="22328848#0" to="-11967580#5"/>
    <trip id="373" depart="1060.11" from="345311195#3" to="-149102061#6"/>
    <trip id="374" depart="1062.95" from="-157148575#0" to="11966412#1"/>
    <trip id="375" depart="1065.79" from="22338210#1" to="-10505524#3"/>
    <trip id="377" depart="1071.47" from="-263060155#6" to="206030314#1"/>
    <trip id="378" depart="1074.32" from="34340977#3" to="-421617196"/>
    <trip id="379" depart="1077.16" from="362226764" to="172675262#1"/>
    <trip id="380" depart="1080.00" from="-4045955#0" to="-11966416#2"/>
    <trip id="382" depart="1085.68" from="-268268082#0" to="-157147524#13"/>
    <trip id="383" depart="1088.53" from="4045955#0" to="-196193012#4"/>
    <trip id="384" depart="1091.37" from="466783103" to="38331797#2"/>
    <trip id="385" depart="1094.21" from="157150665#1" to="-26007022#5"/>
    <trip id="386" depart="1097.05" from="38331797#0" to="167978333#2"/>
    <trip id="388" depart="1102.74" from="8226386#1" to="486568145#3"/>
    <trip id="389" depart="1105.58" from="-4045955#0" to="1678518#6"/>
    <trip id="390" depart="1108.42" from="4776674#1" to="-361506385#3"/>
    <trip id="392" depart="1114.11" from="-149102061#10" to="149102061#2"/>
    <trip id="393" depart="1116.95" from="27199073#1" to="-11967580#0"/>
    <trip id="394" depart="1119.79" from="-157149627" to="486568146#1"/>
    <trip id="395" depart="1122.63" from="-466783104#0" to="-122401180"/>
    <trip id="396" depart="1125.47" from="-24245994" to="-4294652#2"/>
    <trip id="397" depart="1128.32" from="-486568146#0" to="157148579#6"/>
    <trip id="398" depart="1131.16" from="-19195949#1" to="486568145#1"/>
    <trip id="400" depart="1136.84" from="486568146#0" to="-157150660#9"/>
    <trip id="401" depart="1139.68" from="5107111#2" to="-11967580#4"/>
    <trip id="402" depart="1142.53" from="-154182822#1" to="-34335059"/>
    <trip id="403" depart="1145.37" from="-196193012#1" to="-4046580#3"/>
    <trip id="404" depart="1148.21" from="-38059692" to="-11967580#3"/>
    <trip id="406" depart="1153.89" from="17749021" to="-11966437#4"/>
    <trip id="408" depart="1159.58" from="-5107111#3" to="24245994"/>
    <trip id="410" depart="1165.26" from="-132857756#8" to="4901998#4"/>
    <trip id="411" depart="1168.11" from="-26007022#2" to="-216510385#0"/>
    <trip id="412" depart="1170.95" from="157151822#0" to="11966432#2"/>
    <trip id="413" depart="1173.79" from="10966038#4" to="-171610162#1"/>
    <trip id="415" depart="1179.47" from="-122401180" to="8226386#4"/>
    <trip id="416" depart="1182.32" from="26007022#4" to="-83629678#1"/>
    <trip id="417" depart="1185.16" from="-4045955#1" to="-38526008#9"/>
    <trip id="418" depart="1188.00" from="-19195481#3" to="77049898#3"/>
    <trip id="419" depart="1190.84" from="-157151822#0" to="177851182#4"/>
    <trip id="420" depart="1193.68" from="157149627" to="4294652#3"/>
    <trip id="421" depart="1196.53" from="24245994" to="58698093#1"/>
    <trip id="422" depart="1199.37" from="170948390#1" to="171610162#1"/>
    <trip id="423" depart="1202.21" from="-37740515#0" to="119140949#0"/>
    <trip id="424" depart="1205.05" from="466783103" to="26007022#5"/>
    <trip id="425" depart="1207.89" from="-157149627" to="25921301#3"/>
    <trip id="426" depart="1210.74" from="11966410#0" to="-159269896#2"/>
    <trip id="427" depart="1213.58" from="4045955#0" to="171610162#3"/>
    <trip id="429" depart="1219.26" from="61925010#0" to="-22328010#0"/>
    <trip id="430" depart="1222.11" from="-25933479#0" to="-167801604#7"/>
    <trip id="431" depart="1224.95" from="466783103" to="412618719#1"/>
    <trip id="432" depart="1227.79" from="1678518#8" to="486568145#2"/>
    <trip id="433" depart="1230.63" from="486568145#3" to="-157151822#0"/>
    <trip id="434" depart="1233.47" from="-369182824" to="10505524#3"/>
    <trip id="435" depart="1236.32" from="157150665#0" to="-31427683#4"/>
    <trip id="436" depart="1239.16" from="-377325783#0" to="78766899#0"/>
    <trip id="437" depart="1242.00" from="-157149992#4" to="-345235519#1"/>
    <trip id="438" depart="1244.84" from="-371961405#3" to="-11967580#3"/>
    <trip id="439" depart="1247.68" from="-107103752#2" to="10965854#2"/>
    <trip id="440" depart="1250.53" from="-35580594" to="11966432#0"/>
    <trip id="441" depart="1253.37" from="-78346874#0" to="-132908614#13"/>
    <trip id="442" depart="1256.21" from="-2210065#0" to="486568146#0"/>
    <trip id="443" depart="1259.05" from="27444291" to="-26007022#4"/>
    <trip id="448" depart="1273.26" from="157151822#0" to="-77049898#1"/>
    <trip id="449" depart="1276.11" from="-22327897#1" to="4901998#1"/>
    <trip id="450" depart="1278.95" from="466783104#0" to="-167978333#7"/>
    <trip id="451" depart="1281.79" from="-122401180" to="-11966407#1"/>
    <trip id="453" depart="1287.47" from="-403212739" to="-2210065#3"/>
    <trip id="455" depart="1293.16" from="167978333#13" to="17749021"/>
    <trip id="458" depart="1301.68" from="153431406#2" to="10505524#2"/>
    <trip id="459" depart="1304.53" from="-412618719#1" to="4901998#3"/>
    <trip id="460" depart="1307.37" from="-3994450#5" to="11966407#1"/>
    <trip id="461" depart="1310.21" from="486568146#0" to="19195949#1"/>
    <trip id="462" depart="1313.05" from="-486563017" to="4046580#0"/>
    <trip id="463" depart="1315.89" from="122401180" to="-157149992#4"/>
    <trip id="464" depart="1318.74" from="-4082047#8" to="34335064"/>
    <trip id="465" depart="1321.58" from="31427705#0" to="157147524#13"/>
    <trip id="466" depart="1324.42" from="8274069#0" to="-22338210#7"/>
    <trip id="467" depart="1327.26" from="-4776674#0" to="157151826#2"/>
    <trip id="468" depart="1330.11" from="-369182824" to="-22331056#10"/>
    <trip id="469" depart="1332.95" from="-35580594" to="486568145#1"/>
    <trip id="470" depart="1335.79" from="-27199884" to="144137427#1"/>
    <trip id="472" depart="1341.47" from="-4776674#1" to="-345235519#2"/>
    <trip id="473" depart="1344.32" from="-157150674#0" to="26007022#2"/>
    <trip id="474" depart="1347.16" from="-157149627" to="159269896#0"/>
    <trip id="475" depart="1350.00" from="-4776674#2" to="-22328853#0"/>
    <trip id="476" depart="1352.84" from="-22337654#1" to="4046250#0"/>
    <trip id="477" depart="1355.68" from="157148586#3" to="-11966403#0"/>
    <trip id="478" depart="1358.53" from="-157149627" to="-26007022#4"/>
    <trip id="479" depart="1361.37" from="-157151826#2" to="171610162#2"/>
    <trip id="480" depart="1364.21" from="61925010#3" to="-412954640"/>
    <trip id="482" depart="1369.89" from="-36240523#1" to="-159269898#1"/>
    <trip id="485" depart="1378.42" from="-177851182#5" to="36240523#2"/>
    <trip id="486" depart="1381.26" from="-466783103" to="-326418286"/>
    <trip id="487" depart="1384.11" from="-157152190#2" to="157152190#0"/>
    <trip id="489" depart="1389.79" from="-31427683#0" to="4776904#3"/>
    <trip id="490" depart="1392.63" from="-486568145#1" to="-196193012#3"/>
    <trip id="492" depart="1398.32" from="-122401180" to="-341128265#6"/>
    <trip id="493" depart="1401.16" from="-24245994" to="-11966437#3"/>
    <trip id="494" depart="1404.00" from="-27199868#1" to="119140949#0"/>
    <trip id="495" depart="1406.84" from="27866152" to="19798099"/>
    <trip id="496" depart="1409.68" from="157149627" to="-412954648#0"/>
    <trip id="498" depart="1415.37" from="-4734923#0" to="38331806#0"/>
    <trip id="499" depart="1418.21" from="52381441#3" to="17749020#0"/>
    <trip id="500" depart="1421.05" from="-4294652#3" to="49201848#1"/>
    <trip id="501" depart="1423.89" from="58698095#0" to="49201848#2"/>
    <trip id="503" depart="1429.58" from="24245994" to="25921301#3"/>
    <trip id="504" depart="1432.42" from="-22328848#0" to="-17749021"/>
    <trip id="505" depart="1435.26" from="-8226386#0" to="159269898#1"/>
    <trip id="506" depart="1438.11" from="-177850794#2" to="-77049898#8"/>
    <trip id="507" depart="1440.95" from="-177851184" to="-11967580#5"/>